22
Properties=species:S:1:pos:R:3:forces:R:3 energy=-13509.17489577618 stress="0.0 0.0 0.0 0.0 0.0 0.0 0.0 0.0 0.0" pbc="F F F"
C         21.48710      -15.38500        0.87730
H         21.97770      -14.59270        1.43810
C         20.10520      -15.39300        0.72390
H         19.50800      -14.60290        1.17200
C         19.48960      -16.41100        0.00120
H         18.40860      -16.41800       -0.11690
C         20.25980      -17.41880       -0.57150
H         19.78310      -18.21520       -1.13790
C         21.64260      -17.41040       -0.42180
H         22.25390      -18.19170       -0.86710
C         22.26560      -16.39350        0.30300
N         24.62410      -16.00880       -0.40160
C         25.84280      -16.16200        0.21240
H         26.76370      -15.90490       -0.29450
C         25.68440      -16.65640        1.47580
H         26.38520      -16.91220        2.25810
N         24.32870      -16.81390        1.64790
C         23.73790      -16.40510        0.48390
C         23.67320      -17.32200        2.83880
H         23.62680      -16.55950        3.62410
H         24.22240      -18.19060        3.21180
H         22.66010      -17.63590        2.58350
