13
Properties=species:S:1:pos:R:3:forces:R:3 energy=-18603.245362848233 stress="0.0 0.0 0.0 0.0 0.0 0.0 0.0 0.0 0.0" pbc="F F F"
C         -1.11640       -1.38080       -0.59480
H         -0.37370       -1.16340       -1.36450
H         -0.95090       -0.77310        0.29730
H         -2.12390       -1.21650       -0.98110
S         -0.99040       -3.10170       -0.16700
O         -1.21560       -3.88620       -1.36870
N          0.63770       -3.24460        0.23860
H          0.80160       -2.71210        1.09050
O         -1.80010       -3.32410        1.02320
C          1.08670       -4.63640        0.41790
H          0.92100       -5.17870       -0.51510
H          0.57680       -5.16200        1.23640
H          2.15980       -4.60690        0.61890
