21
Properties=species:S:1:pos:R:3:forces:R:3 energy=-13039.938165564507 stress="0.0 0.0 0.0 0.0 0.0 0.0 0.0 0.0 0.0" pbc="F F F"
C         21.82680      -22.01130        0.00850
H         22.37760      -22.94870        0.03440
C         20.43560      -22.00630       -0.00840
H         19.89200      -22.94770       -0.01270
C         19.74080      -20.79920       -0.00670
H         18.65390      -20.79690       -0.01420
C         20.44150      -19.59640        0.01200
H         19.90410      -18.65180        0.01960
C         21.83270      -19.60220        0.01350
H         22.38110      -18.66250        0.02230
C         22.53520      -20.80940       -0.00660
C         26.13690      -20.12720       -0.90500
H         26.72130      -19.61850       -1.66690
C         24.75050      -20.13970       -0.97070
H         24.22080      -19.64460       -1.78070
C         24.02840      -20.81250        0.01870
N         24.62130      -21.43620        1.04370
C         25.95320      -21.39890        1.10220
H         26.39870      -21.91280        1.95180
C         26.75840      -20.76750        0.16030
H         27.83910      -20.78130        0.26390
