20
Properties=species:S:1:pos:R:3:forces:R:3 energy=-13476.227827528943 stress="0.0 0.0 0.0 0.0 0.0 0.0 0.0 0.0 0.0" pbc="F F F"
C         21.68680      -24.19840       -0.00940
H         22.23860      -23.26080       -0.03200
C         20.29470      -24.19540        0.00720
H         19.75480      -23.25190        0.01460
C         19.59610      -25.39960        0.01030
H         18.50900      -25.39700        0.01950
C         20.28910      -26.60700        0.00810
H         19.74490      -27.54800        0.02100
C         21.68130      -26.61050        0.00230
H         22.22880      -27.55040        0.03350
C         22.38310      -25.40620       -0.03500
C         25.77990      -25.62510        1.21540
H         26.24190      -25.83650        2.17800
N         24.44870      -25.65850        1.18690
C         23.87580      -25.40790        0.00510
N         24.51090      -25.09040       -1.12810
C         25.84130      -25.07590       -1.07420
H         26.35400      -24.83560       -2.00390
C         26.54490      -25.34080        0.09280
H         27.62870      -25.32080        0.12680
