16
Properties=species:S:1:pos:R:3:forces:R:3 energy=-11813.326404106603 stress="0.0 0.0 0.0 0.0 0.0 0.0 0.0 0.0 0.0" pbc="F F F"
C         13.23930       -9.72050        0.90460
N         13.44900      -10.79070        0.05340
H         12.65590      -11.39050       -0.13250
N         14.80510      -12.77410        0.07950
C         16.17030      -12.97560        0.03870
H         16.59110      -13.97160        0.06410
C         16.83900      -11.79010       -0.02760
H         17.89140      -11.54980       -0.07450
N         15.85620      -10.81800       -0.05170
H         15.94640       -9.83970        0.18290
C         14.67240      -11.47710        0.00850
O         14.16770       -9.06480        1.34180
C         11.78430       -9.40260        1.17860
H         11.22190       -9.31390        0.24350
H         11.73530       -8.46140        1.72580
H         11.31690      -10.19070        1.77920
