14
Properties=species:S:1:pos:R:3:forces:R:3 energy=-9710.24252964275 stress="0.0 0.0 0.0 0.0 0.0 0.0 0.0 0.0 0.0" pbc="F F F"
C         -0.12530       -0.09510       -0.05070
H         -0.19150        0.39620       -1.02900
H         -0.23340        0.68930        0.70730
C          1.22960       -0.79500        0.06380
H          1.29780       -1.56450       -0.71180
H          1.29870       -1.31560        1.02760
C          2.38720        0.19000       -0.07280
H          2.35960        0.69620       -1.04450
H          3.35380       -0.31590        0.01360
H          2.34130        0.96020        0.70600
C         -1.32170       -1.02480        0.03740
H         -1.68190       -1.20450        1.05610
F         -1.02200       -2.24330       -0.50750
F         -2.35420       -0.51440       -0.69450
