14
Properties=species:S:1:pos:R:3:forces:R:3 energy=-8266.865293808785 stress="0.0 0.0 0.0 0.0 0.0 0.0 0.0 0.0 0.0" pbc="F F F"
C          1.57140       -3.05060       -1.13550
H          2.41740       -2.39230       -1.34670
H          0.65700       -2.61490       -1.55760
H          1.73920       -4.01060       -1.62620
N          1.48160       -3.25970        0.29610
H          1.63760       -2.46290        0.89510
C          0.64390       -4.24860        0.77040
N          0.63830       -4.35780        2.14920
H          1.46840       -4.02560        2.61930
C         -0.01560       -5.51130        2.73970
H         -1.00600       -5.61730        2.29500
H         -0.12540       -5.34680        3.81430
H          0.53160       -6.44750        2.56980
O         -0.01350       -4.97360        0.04010
