18
Properties=species:S:1:pos:R:3:forces:R:3 energy=-8457.052703224841 stress="0.0 0.0 0.0 0.0 0.0 0.0 0.0 0.0 0.0" pbc="F F F"
C          5.49810      -23.16600       -0.03870
C          6.81150      -22.41170       -0.01100
H          6.88700      -21.79110       -0.91480
C          6.99380      -21.51830        1.21960
H          6.21020      -20.75600        1.28280
H          6.95940      -22.10860        2.14100
H          7.95890      -21.00230        1.18220
H          7.63720      -23.13040       -0.06750
C          5.48040      -24.56120       -0.04800
H          6.42580      -25.10180       -0.03890
C          4.27950      -25.26510       -0.06340
H          4.29020      -26.35290       -0.07110
C          3.07040      -24.57790       -0.07020
H          2.12980      -25.12300       -0.08430
C          3.07340      -23.18580       -0.05840
H          2.13320      -22.63910       -0.06270
C          4.27620      -22.48790       -0.03700
H          4.26500      -21.39860       -0.03310
