16
Properties=species:S:1:pos:R:3:forces:R:3 energy=-10906.73857072026 stress="0.0 0.0 0.0 0.0 0.0 0.0 0.0 0.0 0.0" pbc="F F F"
C          7.54050      -21.31160        0.18140
H          6.63650      -20.71700        0.27540
C          7.51610      -22.69390        0.31880
H          6.58600      -23.21700        0.52350
C          8.70690      -23.39580        0.18000
H          8.74190      -24.47760        0.27690
C          9.87570      -22.68070       -0.07330
N          9.91380      -21.35220       -0.20720
C          8.76140      -20.69560       -0.08370
H          8.82230      -19.61520       -0.20030
C         11.19760      -23.40540       -0.24360
O         12.14940      -23.13700        0.45230
C         11.26360      -24.42890       -1.35740
H         10.46890      -25.17730       -1.25890
H         11.11970      -23.94020       -2.32900
H         12.23740      -24.92200       -1.33170
