10
Properties=species:S:1:pos:R:3:forces:R:3 energy=-6263.601204967036 stress="0.0 0.0 0.0 0.0 0.0 0.0 0.0 0.0 0.0" pbc="F F F"
O         -1.19100       -3.33010        1.60570
H         -1.48830       -3.06500        0.72510
C          0.20670       -3.43030        1.57940
H          0.50180       -3.68950        2.60600
H          0.67060       -2.47910        1.28710
O          0.68190       -4.39140        0.68210
C          0.21420       -5.69420        0.97670
H          0.60410       -6.35450        0.19930
H         -0.88140       -5.73190        0.98180
H          0.58220       -6.03750        1.95630
