20
Properties=species:S:1:pos:R:3:forces:R:3 energy=-12003.052149560956 stress="0.0 0.0 0.0 0.0 0.0 0.0 0.0 0.0 0.0" pbc="F F F"
C         13.24520      -37.21470       -0.00720
H         13.78160      -38.16030       -0.01080
C         11.85450      -37.19750       -0.01310
H         11.30360      -38.13470       -0.02020
C         11.17060      -35.98550       -0.00530
H         10.08330      -35.97270       -0.00800
C         11.88330      -34.79050        0.00820
H         11.35650      -33.83980        0.01750
C         13.27430      -34.80730        0.01020
H         13.83390      -33.87510        0.02070
C         13.97020      -36.01950       -0.00930
C         16.37920      -35.84830       -0.98340
H         16.15500      -35.59820       -2.01200
C         17.66930      -36.04310       -0.41590
H         18.61890      -35.96130       -0.92780
C         17.48920      -36.35840        0.90720
H         18.20060      -36.57990        1.69120
N         16.14230      -36.36420        1.15630
H         15.71360      -36.55960        2.04710
C         15.45020      -36.04030        0.01390
