14
Properties=species:S:1:pos:R:3:forces:R:3 energy=-8266.642914333743 stress="0.0 0.0 0.0 0.0 0.0 0.0 0.0 0.0 0.0" pbc="F F F"
C          0.95320       -1.85930        0.41300
H          1.73210       -1.19300        0.03190
H          0.01820       -1.65810       -0.12990
H          0.79530       -1.61650        1.46900
N          1.41740       -3.24580        0.28800
H          1.53840       -3.44710       -0.69990
C          0.52380       -4.23000        0.78100
N          0.58360       -4.36040        2.14280
H          1.39240       -3.93760        2.57350
C          0.00820       -5.52770        2.77980
H          0.67830       -6.39740        2.75960
H         -0.23800       -5.29030        3.81770
H         -0.90640       -5.79110        2.24710
O         -0.17470       -4.91770        0.05840
