20
Properties=species:S:1:pos:R:3:forces:R:3 energy=-13476.508871017333 stress="0.0 0.0 0.0 0.0 0.0 0.0 0.0 0.0 0.0" pbc="F F F"
C         21.68340      -24.19370       -0.00730
H         22.23960      -23.26150       -0.02190
C         20.29420      -24.19560        0.00280
H         19.75290      -23.25280        0.00540
C         19.59770      -25.40130        0.00590
H         18.51110      -25.40140        0.01150
C         20.29450      -26.60680        0.00400
H         19.75340      -27.54980        0.01100
C         21.68370      -26.60850       -0.00010
H         22.24010      -27.54050        0.01500
C         22.38550      -25.40110       -0.01650
C         25.81490      -24.29250       -0.39150
H         26.30620      -23.37480       -0.71020
N         24.48570      -24.27440       -0.38610
C         23.87140      -25.39950       -0.00080
N         24.48200      -26.53120        0.37080
C         25.81130      -26.51600        0.38040
H         26.29960      -27.43600        0.69700
C         26.54980      -25.40470       -0.00320
H         27.63400      -25.40600       -0.00170
