22
Properties=species:S:1:pos:R:3:forces:R:3 energy=-13046.182930314917 stress="0.0 0.0 0.0 0.0 0.0 0.0 0.0 0.0 0.0" pbc="F F F"
C          4.01370       -2.08850       -1.71590
H          5.03980       -2.01200       -2.06250
C          3.28290       -0.93120       -1.46330
H          3.73270        0.04400       -1.63220
C          1.96870       -1.01990       -1.00150
C          1.11740        0.19420       -0.73860
C          1.38260       -2.27460       -0.83110
H          0.34560       -2.32930       -0.51060
C          2.11830       -3.42930       -1.06770
H          1.65990       -4.40360       -0.91600
C          3.43670       -3.33820       -1.50810
H          4.01200       -4.24080       -1.69730
N          1.70190        1.25700       -0.09270
C          0.89180        2.45170        0.05930
H          0.18540        2.50850       -0.76850
H          1.53990        3.33320        0.05600
H          0.32240        2.43780        1.00000
C          2.78800        1.13560        0.86160
H          3.51150        1.94330        0.70090
H          3.29980        0.17880        0.76280
H          2.41530        1.21510        1.89300
O         -0.05470        0.22240       -1.08660
