22
Properties=species:S:1:pos:R:3:forces:R:3 energy=-13509.246602865209 stress="0.0 0.0 0.0 0.0 0.0 0.0 0.0 0.0 0.0" pbc="F F F"
C         21.46960      -15.36270        0.81690
H         21.91600      -14.54820        1.37730
C         20.08750      -15.40420        0.67690
H         19.48490      -14.60390        1.09700
C         19.48080      -16.46030        0.00330
H         18.40060      -16.48900       -0.11010
C         20.26690      -17.48670       -0.51210
H         19.80250      -18.32400       -1.02660
C         21.64720      -17.45040       -0.36470
H         22.26870      -18.25690       -0.74480
C         22.26920      -16.37330        0.27300
N         24.43510      -17.52830        0.31500
C         25.73890      -17.17070        0.51440
H         26.53740      -17.90240        0.51010
C         25.83800      -15.82130        0.69390
H         26.67820      -15.16470        0.86680
N         24.55640      -15.33080        0.60960
C         23.73780      -16.41180        0.40510
C         24.23490      -13.91510        0.60990
H         25.12780      -13.35800        0.31770
H         23.92240      -13.56750        1.60070
H         23.44670      -13.70710       -0.11780
