13
Properties=species:S:1:pos:R:3:forces:R:3 energy=-18603.32376183365 stress="0.0 0.0 0.0 0.0 0.0 0.0 0.0 0.0 0.0" pbc="F F F"
C         -1.17170       -1.39040       -0.61380
H         -0.90910       -0.76030        0.23940
H         -0.54730       -1.15990       -1.48010
H         -2.22480       -1.24960       -0.86680
S         -0.97690       -3.10690       -0.17690
O         -1.78510       -3.34150        1.00660
N          0.60120       -3.27150        0.26360
H          1.22590       -3.34940       -0.52580
O         -1.14140       -3.88670       -1.39000
C          1.09820       -2.68180        1.49520
H          1.28870       -1.60230        1.42060
H          0.36570       -2.86210        2.28470
H          2.03080       -3.18300        1.76370
