19
Properties=species:S:1:pos:R:3:forces:R:3 energy=-12439.740886109104 stress="0.0 0.0 0.0 0.0 0.0 0.0 0.0 0.0 0.0" pbc="F F F"
C          5.60520      -17.50340       -0.00750
H          6.15120      -18.44360       -0.01480
C          4.21440      -17.49600       -0.00520
H          3.66930      -18.43650       -0.01720
C          3.52210      -16.28860        0.01370
H          2.43480      -16.28440        0.01730
C          4.22400      -15.08660        0.02730
H          3.68660      -14.14180        0.04070
C          5.61450      -15.09190        0.01830
H          6.16790      -14.15570        0.03070
C          6.31510      -16.30070        0.01340
N          8.61270      -16.73880        0.89480
C          9.87540      -16.55810        0.38510
H         10.75200      -16.82930        0.95880
C          9.82200      -16.02350       -0.87140
H         10.58330      -15.74910       -1.58730
N          8.48160      -15.86600       -1.13240
H          8.06960      -15.50200       -1.97720
C          7.79490      -16.30170       -0.03530
