12
Properties=species:S:1:pos:R:3:forces:R:3 energy=-6760.653134402568 stress="0.0 0.0 0.0 0.0 0.0 0.0 0.0 0.0 0.0" pbc="F F F"
C          1.61940       -2.48430        1.91330
H          1.23230       -1.59320        2.41400
H          2.34520       -2.98550        2.56990
H          2.12990       -2.18180        0.99650
N          0.50560       -3.34010        1.53120
H         -0.05080       -3.65190        2.31560
C          0.71570       -4.31910        0.57100
C          0.23540       -5.70930        0.95000
H         -0.73850       -5.68800        1.45220
H          0.16550       -6.31140        0.04340
H          0.95780       -6.17990        1.62700
O          1.32670       -4.09020       -0.45430
