16
Properties=species:S:1:pos:R:3:forces:R:3 energy=-20705.204707528574 stress="0.0 0.0 0.0 0.0 0.0 0.0 0.0 0.0 0.0" pbc="F F F"
C         28.32120       -5.31070        0.59000
N         29.42040       -4.79040       -0.06700
H         29.31700       -3.89250       -0.51690
C         31.09850       -6.61720        0.18800
H         30.38380       -7.40330        0.39310
C         32.51250       -6.78040        0.10110
H         33.01540       -7.73370        0.22290
C         33.16750       -5.61500       -0.14850
H         34.23180       -5.45660       -0.25980
S         32.07630       -4.28100       -0.28960
C         30.71630       -5.32340        0.00240
O         28.36260       -6.35000        1.21380
C         27.07060       -4.46580        0.44760
H         27.21680       -3.47070        0.88190
H         26.25390       -4.96510        0.96870
H         26.80100       -4.33850       -0.60630
