21
Properties=species:S:1:pos:R:3:forces:R:3 energy=-13945.444984969357 stress="0.0 0.0 0.0 0.0 0.0 0.0 0.0 0.0 0.0" pbc="F F F"
C         29.17560      -17.07160       -1.48470
H         29.67560      -17.66850       -2.24240
C         27.79460      -17.08770       -1.34730
H         27.18290      -17.70460       -1.99890
C         27.21790      -16.30420       -0.35670
H         26.14310      -16.28370       -0.20310
C         28.05710      -15.53360        0.44280
H         27.64510      -14.90330        1.22880
N         29.38210      -15.49900        0.31570
C         29.93140      -16.26170       -0.63180
N         32.13400      -15.15380       -0.99820
C         33.42260      -15.60760       -1.10800
H         34.24060      -14.93110       -1.31730
C         33.47370      -16.95990       -0.91440
H         34.28670      -17.67200       -0.91530
N         32.17880      -17.35420       -0.67930
C         31.41390      -16.22200       -0.74390
C         31.75380      -18.71200       -0.39170
H         32.50030      -19.19150        0.24640
H         30.80290      -18.69210        0.14360
H         31.63820      -19.30390       -1.30700
