15
Properties=species:S:1:pos:R:3:forces:R:3 energy=-12353.389348665312 stress="0.0 0.0 0.0 0.0 0.0 0.0 0.0 0.0 0.0" pbc="F F F"
C         11.35810      -17.23010        0.69910
N         12.54790      -17.03620       -0.00460
H         12.67050      -16.07950       -0.31300
N         13.80870      -19.09410        0.12370
C         15.18370      -19.29830        0.04430
H         15.61530      -20.28760        0.08040
C         15.81360      -18.11730       -0.07410
H         16.83960      -17.80040       -0.16470
O         14.84730      -17.13280       -0.07810
C         13.69130      -17.80850        0.05530
O         10.55930      -16.32050        0.76340
C         11.14940      -18.58550        1.31820
H         11.27140      -19.38130        0.57950
H         10.15100      -18.60800        1.75540
H         11.90100      -18.76820        2.09140
