16
Properties=species:S:1:pos:R:3:forces:R:3 energy=-9433.422991475936 stress="0.0 0.0 0.0 0.0 0.0 0.0 0.0 0.0 0.0" pbc="F F F"
C         -2.12130        1.07410       -0.84180
H         -2.65570        1.85820       -0.31100
C         -2.82680        0.03480       -1.44530
H         -3.91160        0.00330       -1.38930
C         -2.12880       -0.96200       -2.11640
H         -2.66650       -1.78260       -2.58590
C         -0.73810       -0.93130       -2.18900
H         -0.20020       -1.71990       -2.70790
C         -0.04200        0.12140       -1.59660
C         -0.73610        1.12080       -0.91300
H         -0.16630        1.92510       -0.45620
O          1.31760        0.25120       -1.66280
C          2.08440       -0.92710       -1.51130
H          3.10990       -0.60060       -1.32740
H          1.73360       -1.52940       -0.66380
H          2.06820       -1.54470       -2.41940
