22
Properties=species:S:1:pos:R:3:forces:R:3 energy=-12603.586639159763 stress="0.0 0.0 0.0 0.0 0.0 0.0 0.0 0.0 0.0" pbc="F F F"
C         13.18440      -21.99430        0.04480
H         13.71060      -22.94530        0.04740
C         11.79510      -22.00050        0.01720
H         11.26430      -22.94920        0.02980
C         11.08820      -20.80290       -0.01890
H         10.00190      -20.80620       -0.03630
C         11.78860      -19.60100       -0.02890
H         11.25250      -18.65540       -0.05210
C         13.17810      -19.59830       -0.01140
H         13.69690      -18.64360        0.01190
C         13.90570      -20.79460        0.01270
C         17.52260      -19.66540       -0.28130
H         18.06790      -18.79670       -0.64200
C         16.13570      -19.68420       -0.36370
H         15.62830      -18.83720       -0.81810
C         15.39740      -20.79060        0.07400
C         16.10280      -21.86390        0.63200
H         15.56650      -22.72200        1.02850
C         17.48920      -21.84390        0.72500
H         18.00810      -22.69480        1.15930
C         18.20830      -20.74560        0.26490
H         19.29240      -20.73030        0.33380
