18
Properties=species:S:1:pos:R:3:forces:R:3 energy=-6416.057686585002 stress="0.0 0.0 0.0 0.0 0.0 0.0 0.0 0.0 0.0" pbc="F F F"
C          4.43790        0.38500       -1.35930
H          5.49500        0.45790       -1.08470
H          4.36990        0.48490       -2.44750
C          3.84650       -0.94180       -0.88440
H          4.38810       -1.75510       -1.39320
H          4.03170       -1.07420        0.18930
C          2.36340       -1.10900       -1.15210
C          1.87950       -0.66710       -2.51250
H          2.51570       -1.08630       -3.30220
H          0.85240       -0.97470       -2.71930
H          1.92410        0.42410       -2.60940
C          1.58960       -1.68120       -0.22680
H          2.05890       -1.94170        0.72520
C          0.12830       -2.00600       -0.31800
H         -0.04200       -3.07710       -0.15560
H         -0.43620       -1.47670        0.45910
H          3.91480        1.23680       -0.90980
H         -0.30890       -1.74290       -1.28310
