20
Properties=species:S:1:pos:R:3:forces:R:3 energy=-12003.141366771466 stress="0.0 0.0 0.0 0.0 0.0 0.0 0.0 0.0 0.0" pbc="F F F"
C         13.25030      -37.20450       -0.00850
H         13.78020      -38.15370       -0.00990
C         11.86180      -37.19800       -0.03660
H         11.32120      -38.14020       -0.06940
C         11.16630      -35.99300       -0.02260
H         10.08000      -35.98630       -0.04500
C         11.87580      -34.79540        0.01980
H         11.34550      -33.84600        0.03080
C         13.26480      -34.80260        0.05040
H         13.78540      -33.84690        0.06480
C         13.97830      -36.00910        0.03460
C         16.33090      -37.09400       -0.11230
H         16.07360      -38.11420       -0.36880
C         17.64400      -36.58650        0.05710
H         18.56950      -37.13940       -0.02610
C         17.52990      -35.25170        0.35130
H         18.28600      -34.50650        0.55550
N         16.20090      -34.93410        0.35450
H         15.82770      -34.03870        0.62140
C         15.44550      -36.04990        0.07460
