15
Properties=species:S:1:pos:R:3:forces:R:3 energy=-5346.417216148919 stress="0.0 0.0 0.0 0.0 0.0 0.0 0.0 0.0 0.0" pbc="F F F"
C          4.69030       -2.09610       -1.22240
H          5.75500       -1.89210       -1.06670
H          4.56300       -2.47240       -2.24340
C          3.84730       -0.83660       -0.98990
H          4.18000       -0.04100       -1.66610
H          4.02720       -0.47880        0.03460
C          2.37020       -1.08530       -1.17330
H          1.93880       -0.87640       -2.15370
C          1.60390       -1.64660       -0.24080
H          2.06230       -1.89580        0.71930
C          0.14790       -1.96870       -0.39340
H         -0.45160       -1.43640        0.35470
H         -0.03570       -3.04000       -0.24670
H          4.39570       -2.89500       -0.53310
H         -0.22160       -1.69210       -1.38650
