18
Properties=species:S:1:pos:R:3:forces:R:3 energy=-6416.032133669377 stress="0.0 0.0 0.0 0.0 0.0 0.0 0.0 0.0 0.0" pbc="F F F"
C          4.91150       -1.88590       -0.69810
H          4.53230       -2.67490       -0.03970
H          5.78560       -1.43700       -0.21370
C          3.81750       -0.85440       -0.97480
H          3.51570       -0.40310       -0.01640
C          2.57950       -1.53600       -1.56810
H          2.19550       -2.30850       -0.89300
H          2.82520       -2.01370       -2.52390
H          1.77640       -0.81310       -1.74660
C          4.26130        0.27420       -1.87530
H          3.44620        0.92560       -2.20620
C          5.49930        0.55020       -2.27800
H          6.32340       -0.09220       -1.97230
C          5.86720        1.70450       -3.16040
H          6.34200        1.35590       -4.08540
H          6.59010        2.36260       -2.66360
H          5.24130       -2.35960       -1.63070
H          4.98870        2.30020       -3.42920
