19
Properties=species:S:1:pos:R:3:forces:R:3 energy=-12882.594665659104 stress="0.0 0.0 0.0 0.0 0.0 0.0 0.0 0.0 0.0" pbc="F F F"
C         26.37160      -10.65700        1.09870
N         27.33810      -10.64810        0.10970
H         27.05610      -10.17090       -0.73740
N         28.75210      -12.61080        0.22000
C         30.10880      -12.77450        0.10840
H         30.55950      -13.75720        0.14250
C         30.73180      -11.57110       -0.04140
H         31.77050      -11.29560       -0.15540
N         29.72870      -10.62750       -0.02690
C         28.56100      -11.31530        0.12460
O         25.31840      -10.07960        0.91690
C         26.71770      -11.39620        2.36690
H         27.67250      -11.04610        2.76940
H         26.83540      -12.46380        2.15580
H         25.91640      -11.23650        3.08820
C         29.89000       -9.19410       -0.13640
H         30.94540       -8.95540        0.01060
H         29.30490       -8.68850        0.63720
H         29.58100       -8.82330       -1.12070
