11
Properties=species:S:1:pos:R:3:forces:R:3 energy=-5940.517568115351 stress="0.0 0.0 0.0 0.0 0.0 0.0 0.0 0.0 0.0" pbc="F F F"
F         13.25590      -26.46740        0.01000
C         14.39920      -25.67840       -0.00010
H         14.35030      -25.05210       -0.89900
H         14.37000      -25.01920        0.87650
C         15.64870      -26.55530       -0.00160
H         15.36750      -27.53290       -0.40780
H         16.38280      -26.12380       -0.69330
C         16.28700      -26.69290        1.37850
H         15.58440      -27.13290        2.09510
H         16.58990      -25.71400        1.76730
H         17.17610      -27.33010        1.34460
