14
Properties=species:S:1:pos:R:3:forces:R:3 energy=-10409.941420534906 stress="0.0 0.0 0.0 0.0 0.0 0.0 0.0 0.0 0.0" pbc="F F F"
O          4.22620       -3.81190       -1.21000
C          3.86460       -4.28470        1.10620
H          3.71730       -5.30630        1.47490
H          2.89970       -3.80320        0.93600
H          4.42580       -3.74050        1.87550
C          4.64880       -4.29510       -0.18380
C          6.51110       -6.16340       -0.11320
H          5.92960       -7.07170       -0.20410
C          7.93290       -6.04520        0.02080
H          8.65760       -6.84660        0.05660
C          8.18870       -4.71560        0.09170
H          9.09500       -4.13560        0.19240
O          7.04160       -3.99950        0.01270
C          6.02700       -4.89530       -0.11030
