20
Properties=species:S:1:pos:R:3:forces:R:3 energy=-13476.441073484128 stress="0.0 0.0 0.0 0.0 0.0 0.0 0.0 0.0 0.0" pbc="F F F"
C         21.67970      -26.60800        0.00400
H         22.23160      -27.54400       -0.00710
C         20.28970      -26.60680        0.01770
H         19.74870      -27.54950        0.03060
C         19.59290      -25.40120        0.00770
H         18.50620      -25.40090        0.01320
C         20.29000      -24.19590       -0.00510
H         19.74930      -23.25280       -0.00530
C         21.68010      -24.19500       -0.00490
H         22.23250      -23.25960        0.01250
C         22.38340      -25.40160       -0.02040
C         25.82430      -26.31420       -0.70870
H         26.32250      -27.07720       -1.30380
N         24.49390      -26.34250       -0.71430
C         23.87220      -25.40410        0.00980
N         24.47180      -24.44140        0.71980
C         25.80240      -24.45650        0.73770
H         26.28270      -23.68400        1.33540
C         26.54960      -25.38300        0.02290
H         27.63390      -25.37740        0.03220
