20
Properties=species:S:1:pos:R:3:forces:R:3 energy=-13476.47951791237 stress="0.0 0.0 0.0 0.0 0.0 0.0 0.0 0.0 0.0" pbc="F F F"
C         21.68030      -26.60990       -0.00440
H         22.23430      -27.54390       -0.02100
C         20.29080      -26.60650        0.00850
H         19.74830      -27.54840        0.01500
C         19.59590      -25.39970        0.00760
H         18.50930      -25.39800        0.01400
C         20.29440      -24.19510        0.00210
H         19.75480      -23.25140        0.00810
C         21.68400      -24.19570       -0.00080
H         22.24100      -23.26380        0.01920
C         22.38430      -25.40380       -0.02070
C         25.81700      -26.43250       -0.55760
H         26.31080      -27.28550       -1.01990
N         24.48730      -26.45500       -0.55630
C         23.87090      -25.40770        0.00460
N         24.47710      -24.34620        0.54890
C         25.80690      -24.36300        0.56430
H         26.29240      -23.50520        1.02620
C         26.54850      -25.39720        0.00890
H         27.63280      -25.39470        0.01440
