17
Properties=species:S:1:pos:R:3:forces:R:3 energy=-8893.143615218933 stress="0.0 0.0 0.0 0.0 0.0 0.0 0.0 0.0 0.0" pbc="F F F"
C          1.54220       -1.87620       -2.28560
H          1.73820       -2.49450       -3.15880
C          2.43290       -1.87740       -1.21790
H          3.32630       -2.49480       -1.24590
C          2.16330       -1.07330       -0.11340
H          2.84900       -1.05910        0.73050
C          1.02370       -0.28290       -0.07440
H          0.81670        0.33410        0.79870
C          0.11790       -0.28640       -1.14500
C          0.39630       -1.08890       -2.25870
H         -0.28300       -1.09730       -3.10670
N         -1.04160        0.48560       -1.06910
H         -0.99570        1.15780       -0.31580
C         -1.63600        1.02680       -2.27580
H         -2.11690        0.23100       -2.85490
H         -0.91730        1.54000       -2.93360
H         -2.41530        1.73730       -1.98830
