13
Properties=species:S:1:pos:R:3:forces:R:3 energy=-18603.369390005435 stress="0.0 0.0 0.0 0.0 0.0 0.0 0.0 0.0 0.0" pbc="F F F"
C         -1.11990       -1.39790       -0.62440
H         -0.88580       -0.78950        0.25130
H         -0.42950       -1.18890       -1.44300
H         -2.15030       -1.22890       -0.94110
S         -0.98720       -3.11780       -0.18360
O         -1.77770       -3.32680        1.01910
N          0.61030       -3.25700        0.27510
H          0.62850       -3.53640        1.25050
O         -1.21770       -3.90050       -1.38820
C          1.51040       -4.01380       -0.59650
H          1.18560       -5.04810       -0.76020
H          1.57480       -3.50970       -1.56340
H          2.49850       -4.00690       -0.13160
