14
Properties=species:S:1:pos:R:3:forces:R:3 energy=-19198.793432564347 stress="0.0 0.0 0.0 0.0 0.0 0.0 0.0 0.0 0.0" pbc="F F F"
O         21.11960       -5.67120       -0.69380
C         21.53350       -4.29790        1.22180
H         21.95370       -4.66600        2.16420
H         20.44470       -4.25170        1.28010
H         21.93590       -3.29160        1.05870
C         21.92860       -5.20290        0.07760
C         23.84160       -6.87030        0.00960
H         23.17710       -7.72820        0.01550
C         25.26600       -6.93550        0.01920
H         25.83380       -7.85900        0.04400
C         25.83750       -5.69950       -0.00630
H         26.89070       -5.44950       -0.00720
S         24.66540       -4.44390       -0.03550
C         23.37050       -5.59000       -0.03300
