15
Properties=species:S:1:pos:R:3:forces:R:3 energy=-7830.468261478317 stress="0.0 0.0 0.0 0.0 0.0 0.0 0.0 0.0 0.0" pbc="F F F"
C          2.65120       -2.66960       -1.20830
H          3.72230       -2.44520       -1.24850
H          2.51290       -3.74510       -1.33690
H          2.15780       -2.15400       -2.03920
C          2.07270       -2.21790        0.13190
H          2.57960       -2.75320        0.94280
H          2.24490       -1.14940        0.28940
N          0.64010       -2.44130        0.27160
H          0.02290       -1.64580        0.24970
C          0.09310       -3.68550        0.19290
C         -1.42420       -3.72980        0.21030
H         -1.88830       -2.77310        0.46900
H         -1.78390       -4.04320       -0.77480
H         -1.73640       -4.48920        0.93110
O          0.76840       -4.70160        0.13190
