17
Properties=species:S:1:pos:R:3:forces:R:3 energy=-12850.325900622029 stress="0.0 0.0 0.0 0.0 0.0 0.0 0.0 0.0 0.0" pbc="F F F"
C         15.74840      -21.96000       -0.00460
H         14.79900      -21.43410       -0.00650
C         15.80920      -23.35100       -0.00490
H         14.89740      -23.94300       -0.00550
C         17.03910      -23.98920       -0.00130
H         17.14450      -25.06610        0.00640
C         18.18150      -23.18150        0.00150
N         18.14690      -21.84700        0.00000
C         16.94710      -21.26200       -0.00120
H         16.95380      -20.17300       -0.00070
N         19.48160      -23.69930       -0.01100
H         20.18070      -22.97010        0.02200
C         19.87310      -25.01520        0.17700
N         21.24770      -25.16760        0.16470
H         21.52710      -26.13730        0.13590
H         21.79780      -24.55960       -0.42470
O         19.11550      -25.94670        0.37600
