20
Properties=species:S:1:pos:R:3:forces:R:3 energy=-13476.183242745119 stress="0.0 0.0 0.0 0.0 0.0 0.0 0.0 0.0 0.0" pbc="F F F"
C         12.96710      -24.08860       -0.42000
H         13.51310      -23.21710       -0.77120
C         11.57900      -24.10480       -0.40500
H         11.01260      -23.24210       -0.74470
C         10.93240      -25.24180        0.06310
H          9.84910      -25.30430        0.10210
C         11.71400      -26.31250        0.48730
H         11.24820      -27.22200        0.86250
N         13.04700      -26.31900        0.46520
C         13.66040      -25.22150        0.01360
C         17.22010      -24.19880        0.71950
H         17.77260      -23.43880        1.26530
C         15.83200      -24.21040        0.73510
H         15.27200      -23.46380        1.29180
C         15.15720      -25.21070        0.03070
N         15.78820      -26.15000       -0.67950
C         17.12080      -26.11540       -0.69640
H         17.60120      -26.89420       -1.28600
C         17.88500      -25.17160       -0.01640
H         18.96910      -25.20390       -0.06740
