15
Properties=species:S:1:pos:R:3:forces:R:3 energy=-9870.13839619882 stress="0.0 0.0 0.0 0.0 0.0 0.0 0.0 0.0 0.0" pbc="F F F"
O         12.41060      -29.91180        0.81080
C         11.43140      -31.58490       -0.59030
H         11.42160      -32.66820       -0.42430
H         10.48100      -31.14770       -0.27780
H         11.58030      -31.42790       -1.66360
C         12.56080      -30.94060        0.17560
C         14.39610      -32.80740        0.02680
H         13.79680      -33.71040        0.05090
C         15.81180      -32.72800       -0.00730
H         16.50960      -33.55390       -0.00950
C         16.14320      -31.39240       -0.02390
H         17.10940      -30.90610       -0.04060
N         14.99050      -30.67110       -0.01090
H         14.89840      -29.67610        0.12850
C         13.90980      -31.51620       -0.02360
