14
Properties=species:S:1:pos:R:3:forces:R:3 energy=-12410.703276863853 stress="0.0 0.0 0.0 0.0 0.0 0.0 0.0 0.0 0.0" pbc="F F F"
C         -0.14710        0.00120        0.22280
H          0.15550       -0.57910       -0.65570
H          0.07080       -0.60320        1.10870
C          0.60300        1.33310        0.24780
H          0.26770        1.91950        1.11140
H          0.33510        1.90760       -0.64510
C          2.11360        1.13210        0.30730
H          2.39950        0.57260        1.20540
H          2.47050        0.57080       -0.56390
H          2.64420        2.08920        0.32740
C         -1.64750        0.15630        0.14250
F         -2.22900       -0.98310       -0.28310
F         -2.01850        1.13430       -0.70540
F         -2.18430        0.43700        1.34670
