21
Properties=species:S:1:pos:R:3:forces:R:3 energy=-15739.615763132912 stress="0.0 0.0 0.0 0.0 0.0 0.0 0.0 0.0 0.0" pbc="F F F"
C         21.84890      -32.02060        0.27840
H         22.40130      -31.14180        0.59320
C         20.46560      -31.95730        0.21080
H         19.95050      -31.02790        0.44220
C         19.75330      -33.09000       -0.15730
H         18.67070      -33.08890       -0.22890
C         20.48180      -34.24360       -0.42480
H         19.97320      -35.16400       -0.70720
N         21.80630      -34.32240       -0.35320
C         22.50220      -33.22250       -0.03380
C         26.17280      -32.20260        0.04040
H         26.73580      -31.27420        0.07180
C         24.78540      -32.16480        0.05100
H         24.31120      -31.18870        0.06310
C         23.99960      -33.32420        0.01900
C         24.70220      -34.53630       -0.04630
C         26.09010      -34.59590       -0.05760
H         26.56300      -35.57180       -0.10120
C         26.83110      -33.42530       -0.01320
H         27.91580      -33.46940       -0.02210
F         24.06650      -35.71110       -0.06630
