20
Properties=species:S:1:pos:R:3:forces:R:3 energy=-13476.345030791756 stress="0.0 0.0 0.0 0.0 0.0 0.0 0.0 0.0 0.0" pbc="F F F"
C         21.68500      -26.60180        0.00660
H         22.24140      -27.53670       -0.00260
C         20.29360      -26.60780        0.01920
H         19.75630      -27.55250        0.03390
C         19.59180      -25.40530        0.00530
H         18.50490      -25.41010        0.00880
C         20.28270      -24.19640       -0.00730
H         19.73690      -23.25640       -0.00860
C         21.67390      -24.18920       -0.00270
H         22.22110      -23.24930        0.01950
C         22.38190      -25.39250       -0.02300
C         25.83910      -25.99460       -0.94160
H         26.34830      -26.51640       -1.74940
N         24.50810      -26.02980       -0.97060
C         23.87410      -25.39120        0.02030
N         24.45580      -24.70280        1.00970
C         25.78760      -24.70620        1.02970
H         26.25470      -24.16370        1.84950
C         26.54860      -25.34420        0.05940
H         27.63280      -25.33070        0.07910
