16
Properties=species:S:1:pos:R:3:forces:R:3 energy=-20705.166809369086 stress="0.0 0.0 0.0 0.0 0.0 0.0 0.0 0.0 0.0" pbc="F F F"
C         28.75060       -4.27590        1.13260
N         29.45460       -4.70830        0.01850
H         28.94090       -4.61210       -0.85040
C         31.06690       -6.59330       -0.07100
H         30.31450       -7.36940       -0.14860
C         32.47110       -6.82820       -0.01950
H         32.92040       -7.81580       -0.05710
C         33.19010       -5.67700        0.07680
H         34.26480       -5.56100        0.12980
S         32.18140       -4.28250        0.09850
C         30.74180       -5.27010        0.01110
O         27.64220       -3.79990        0.99490
C         29.43440       -4.41480        2.47080
H         30.08700       -5.29130        2.51820
H         30.04940       -3.52680        2.65310
H         28.66780       -4.46350        3.24590
