18
Properties=species:S:1:pos:R:3:forces:R:3 energy=-21768.615213034213 stress="0.0 0.0 0.0 0.0 0.0 0.0 0.0 0.0 0.0" pbc="F F F"
C         21.83320      -21.15650       -0.01060
H         22.40940      -20.23580       -0.00600
C         20.44490      -21.13330        0.02050
H         19.92120      -20.18110        0.04380
C         19.72810      -22.32720        0.02400
H         18.64170      -22.30960        0.04860
C         20.40650      -23.54290       -0.00170
H         19.85190      -24.47720        0.00340
C         21.79610      -23.57150       -0.03380
H         22.31430      -24.52670       -0.05050
C         22.51830      -22.37510       -0.04420
N         24.69490      -21.27420        0.10330
C         26.03600      -21.54190        0.03020
H         26.74260      -20.73150        0.16250
C         26.37070      -22.83730       -0.21100
H         27.35680      -23.26680       -0.30890
S         24.94710      -23.78560       -0.35330
C         23.99230      -22.35550       -0.07550
