21
Properties=species:S:1:pos:R:3:forces:R:3 energy=-15739.595734646677 stress="0.0 0.0 0.0 0.0 0.0 0.0 0.0 0.0 0.0" pbc="F F F"
C         21.82530      -33.28220       -1.17330
H         22.37260      -33.29460       -2.11160
C         20.43670      -33.27180       -1.14370
H         19.86200      -33.27790       -2.06570
C         19.80380      -33.25330        0.09240
H         18.72080      -33.24450        0.17680
C         20.59480      -33.24600        1.23660
H         20.13560      -33.23190        2.22250
N         21.92910      -33.25620        1.22460
C         22.52920      -33.27250        0.03140
C         26.17730      -32.19270       -0.01290
H         26.75730      -31.27440       -0.02180
C         24.78600      -32.13430        0.01060
H         24.28230      -31.17130        0.02760
C         24.02190      -33.29980        0.01780
C         24.69420      -34.51790        0.01680
C         26.07700      -34.60400       -0.00630
H         26.54270      -35.58380       -0.01070
C         26.81930      -33.42740       -0.02290
H         27.90450      -33.47880       -0.04130
F         23.97400      -35.64980        0.03100
