17
Properties=species:S:1:pos:R:3:forces:R:3 energy=-11375.972912347703 stress="0.0 0.0 0.0 0.0 0.0 0.0 0.0 0.0 0.0" pbc="F F F"
O         18.99570      -12.06320       -0.33320
C         19.42060       -9.86780        0.48140
H         19.64760       -9.11120       -0.27700
H         18.34270       -9.87120        0.65500
H         19.93890       -9.59040        1.40420
C         19.82490      -11.24920        0.00800
N         21.64940      -12.89010       -0.03060
C         23.00910      -12.86900        0.00100
H         23.58910      -13.78320       -0.00310
C         23.46420      -11.57940        0.02980
H         24.45820      -11.15500        0.05470
N         22.35200      -10.78040        0.02030
C         21.26970      -11.62910       -0.00990
C         22.41550       -9.33010       -0.03520
H         23.46000       -9.04620       -0.17590
H         21.84080       -8.94020       -0.87880
H         22.06200       -8.87430        0.89350
