14
Properties=species:S:1:pos:R:3:forces:R:3 energy=-12410.561742482543 stress="0.0 0.0 0.0 0.0 0.0 0.0 0.0 0.0 0.0" pbc="F F F"
C         -0.14460       -0.00180        0.18790
H          0.19310       -0.60950       -0.65670
H          0.06220       -0.57280        1.09780
C          0.60560        1.33020        0.21670
H          0.24030        1.93110        1.05760
H          0.37090        1.89550       -0.69280
C          2.11300        1.13330        0.33300
H          2.36870        0.59220        1.25120
H          2.50020        0.55600       -0.51420
H          2.63980        2.09230        0.35260
C         -1.65980        0.12890        0.07220
F         -2.06980        1.41130        0.02240
F         -2.28930       -0.44200        1.11830
F         -2.12790       -0.47440       -1.03830
