15
Properties=species:S:1:pos:R:3:forces:R:3 energy=-21141.959842491382 stress="0.0 0.0 0.0 0.0 0.0 0.0 0.0 0.0 0.0" pbc="F F F"
C         28.95530      -15.77490        0.74050
N         29.29120      -16.94010        0.05910
H         28.57120      -17.64130       -0.05880
N         30.75850      -18.76750        0.11630
C         32.10500      -19.04800        0.04750
H         32.42900      -20.08220        0.08490
C         32.93060      -17.98000       -0.06680
H         34.01040      -17.97320       -0.13710
S         32.00860      -16.51660       -0.06680
C         30.57590      -17.48590        0.03790
O         29.79980      -14.99790        1.12750
C         27.46480      -15.55970        0.89730
H         26.96000      -15.62040       -0.07180
H         27.30210      -14.57360        1.33090
H         27.02740      -16.31640        1.55740
