19
Properties=species:S:1:pos:R:3:forces:R:3 energy=-12439.888485394415 stress="0.0 0.0 0.0 0.0 0.0 0.0 0.0 0.0 0.0" pbc="F F F"
C          5.63170      -17.47450        0.00390
H          6.21030      -18.39450        0.00130
C          4.24380      -17.49770        0.00610
H          3.72060      -18.45030        0.00530
C          3.52460      -16.30550        0.00940
H          2.43820      -16.32440        0.01110
C          4.20330      -15.08940        0.01040
H          3.64930      -14.15400        0.01290
C          5.59270      -15.06390        0.00820
H          6.09850      -14.09990        0.00900
C          6.31970      -16.25730        0.00490
N          8.52210      -17.37930       -0.00070
C          9.82400      -16.95450       -0.00210
H         10.64790      -17.65640       -0.00470
C          9.88640      -15.58970        0.00020
H         10.71450      -14.89690        0.00000
N          8.57750      -15.17120        0.00310
H          8.26340      -14.21480        0.00530
C          7.78900      -16.28590        0.00240
