14
Properties=species:S:1:pos:R:3:forces:R:3 energy=-8266.548380578013 stress="0.0 0.0 0.0 0.0 0.0 0.0 0.0 0.0 0.0" pbc="F F F"
C          2.78870       -3.57530       -0.16930
H          3.23610       -2.67450       -0.59810
H          2.82220       -4.38030       -0.91760
H          3.40290       -3.87100        0.68770
N          1.42480       -3.25280        0.27780
H          0.92960       -2.93800       -0.55350
C          0.72490       -4.40750        0.75120
N          0.72620       -4.48340        2.11250
H          1.07550       -3.66580        2.58910
C         -0.14280       -5.40340        2.81240
H         -1.07650       -4.92880        3.14160
H          0.37150       -5.81670        3.68470
H         -0.39320       -6.21580        2.12850
O          0.19170       -5.21040        0.00730
