18
Properties=species:S:1:pos:R:3:forces:R:3 energy=-12875.964527482258 stress="0.0 0.0 0.0 0.0 0.0 0.0 0.0 0.0 0.0" pbc="F F F"
C         13.93850      -15.07460        0.00040
H         14.51660      -14.15530        0.00940
C         12.55060      -15.05920        0.01680
H         12.00900      -14.11730        0.04180
C         11.87210      -16.27100        0.00110
H         10.78660      -16.31450        0.01330
C         12.62070      -17.44320       -0.03190
H         12.12700      -18.41310       -0.04590
N         13.95280      -17.47650       -0.04910
C         14.59660      -16.30470       -0.03150
N         16.85550      -16.34040       -1.11390
C         18.14090      -16.36040       -0.62780
H         18.99130      -16.36280       -1.29690
C         18.14370      -16.37910        0.73920
H         18.93620      -16.39960        1.47330
N         16.81710      -16.36900        1.09860
H         16.45010      -16.39060        2.03760
C         16.08490      -16.34340       -0.05220
