13
Properties=species:S:1:pos:R:3:forces:R:3 energy=-10846.800573591392 stress="0.0 0.0 0.0 0.0 0.0 0.0 0.0 0.0 0.0" pbc="F F F"
O          4.04900      -18.12630       -0.28410
C          4.84500      -15.98610        0.45450
H          5.25440      -15.85790        1.46220
H          3.78860      -15.71280        0.44470
H          5.41130      -15.32260       -0.20710
C          4.98450      -17.42200        0.01470
N          6.73890      -19.21880        0.00340
C          8.11920      -19.16540        0.01160
H          8.72220      -20.06270        0.01860
C          8.51660      -17.87260        0.00800
H          9.46860      -17.36490        0.00950
O          7.40190      -17.09420        0.00300
C          6.37230      -17.97840       -0.00980
