19
Properties=species:S:1:pos:R:3:forces:R:3 energy=-12439.772458747468 stress="0.0 0.0 0.0 0.0 0.0 0.0 0.0 0.0 0.0" pbc="F F F"
C          5.60500      -17.50310        0.02570
H          6.15190      -18.44270        0.03240
C          4.21440      -17.49560        0.02150
H          3.66910      -18.43600        0.03380
C          3.52160      -16.28840       -0.00090
H          2.43450      -16.28440       -0.00680
C          4.22380      -15.08620       -0.01570
H          3.68690      -14.14110       -0.03190
C          5.61390      -15.09180       -0.00240
H          6.16550      -14.15410       -0.01380
C          6.31480      -16.30070        0.00560
N          8.60430      -16.90290       -0.78830
C          9.86970      -16.64470       -0.32200
H         10.74260      -17.01590       -0.84260
C          9.82430      -15.90230        0.82460
H         10.59100      -15.51550        1.47980
N          8.48590      -15.69200        1.05710
H          8.07880      -15.19770        1.83550
C          7.79240      -16.30430        0.05320
