16
Properties=species:S:1:pos:R:3:forces:R:3 energy=-10906.812495817383 stress="0.0 0.0 0.0 0.0 0.0 0.0 0.0 0.0 0.0" pbc="F F F"
C          7.54030      -21.30490        0.18390
H          6.64240      -20.70330        0.28890
C          7.51080      -22.68510        0.32170
H          6.58120      -23.20410        0.54030
C          8.69520      -23.39730        0.17790
H          8.70080      -24.47770        0.28480
C          9.86870      -22.69760       -0.10430
N          9.90480      -21.36720       -0.24130
C          8.76480      -20.70020       -0.09570
H          8.83300      -19.61970       -0.21120
C         11.19260      -23.41290       -0.27520
O         12.16320      -22.82430       -0.69110
C         11.25370      -24.88330        0.09610
H         10.89760      -25.04950        1.11870
H         10.62190      -25.47640       -0.57580
H         12.28840      -25.21880        0.00680
