18
Properties=species:S:1:pos:R:3:forces:R:3 energy=-10939.246893446478 stress="0.0 0.0 0.0 0.0 0.0 0.0 0.0 0.0 0.0" pbc="F F F"
C         -3.07500        1.23000       -2.31820
H         -4.12370        1.44070       -2.50740
C         -2.07920        2.13090       -2.67690
H         -2.32920        3.07410       -3.15690
C         -0.75610        1.80790       -2.40560
H          0.06180        2.48150       -2.64600
C         -0.48060        0.58460       -1.79420
N         -1.42970       -0.28700       -1.44390
C         -2.69640        0.04160       -1.70460
H         -3.44770       -0.68900       -1.40700
C          0.95060        0.18780       -1.48890
H          0.92450       -0.63820       -0.76500
H          1.45180       -0.16940       -2.39690
O          1.73600        1.25940       -1.02170
C          1.36510        1.68960        0.26840
H          2.11510        2.41510        0.59290
H          0.37800        2.17320        0.27250
H          1.34580        0.84980        0.98030
