18
Properties=species:S:1:pos:R:3:forces:R:3 energy=-6416.05768550319 stress="0.0 0.0 0.0 0.0 0.0 0.0 0.0 0.0 0.0" pbc="F F F"
C          4.80170       -1.10710       -1.95530
H          5.82880       -0.91080       -1.63140
H          4.60650       -0.48520       -2.83490
C          3.81310       -0.80480       -0.82970
H          3.89520        0.26640       -0.58590
H          4.09880       -1.34940        0.07940
C          2.36490       -1.11550       -1.15470
C          1.88770       -0.70080       -2.52600
H          2.16790        0.33980       -2.73270
H          0.80470       -0.77910       -2.64120
H          2.34900       -1.31870       -3.30550
C          1.58560       -1.66480       -0.22030
H          2.05700       -1.93390        0.72830
C          0.12230       -1.98150       -0.30820
H         -0.43390       -1.46970        0.48640
H         -0.05120       -3.05570       -0.17150
H          4.74230       -2.15680       -2.26510
H         -0.32110       -1.69250       -1.26300
