19
Properties=species:S:1:pos:R:3:forces:R:3 energy=-21331.951344781275 stress="0.0 0.0 0.0 0.0 0.0 0.0 0.0 0.0 0.0" pbc="F F F"
C         21.76900      -10.94010       -0.05840
H         22.28200      -11.89770       -0.10910
C         20.37940      -10.92120       -0.04150
H         19.83400      -11.86040       -0.07910
C         19.68800       -9.71470        0.02300
H         18.60130       -9.70630        0.03590
C         20.39920       -8.52020        0.07070
H         19.87260       -7.57060        0.12120
C         21.78900       -8.53460        0.05400
H         22.32380       -7.58960        0.09200
C         22.49650       -9.74060       -0.01070
C         24.82710       -8.66300        0.01290
H         24.48990       -7.63440        0.06490
C         26.20340       -9.03270       -0.02030
H         27.02330       -8.32320        0.00340
C         26.37900      -10.38140       -0.08550
H         27.31020      -10.93070       -0.12190
S         24.87770      -11.21320       -0.10710
C         23.97500       -9.73370       -0.02740
