14
Properties=species:S:1:pos:R:3:forces:R:3 energy=-7010.073196023323 stress="0.0 0.0 0.0 0.0 0.0 0.0 0.0 0.0 0.0" pbc="F F F"
C          0.02990       -0.02030       -0.03870
H          0.06710       -0.62000        0.87920
H          0.01900       -0.72730       -0.87650
C         -1.24490        0.82220       -0.02510
H         -1.21670        1.50170        0.83750
H         -1.27630        1.46000       -0.91930
C         -2.50810       -0.03230        0.03860
H         -2.52010       -0.65120        0.94340
H         -3.41130        0.58640        0.04460
H         -2.56880       -0.70640       -0.82380
C          1.30450        0.81080       -0.06270
H          1.62850        1.04720       -1.08270
H          1.15600        1.75610        0.47670
F          2.32820        0.12840        0.57830
