22
Properties=species:S:1:pos:R:3:forces:R:3 energy=-13509.261757766755 stress="0.0 0.0 0.0 0.0 0.0 0.0 0.0 0.0 0.0" pbc="F F F"
C         21.64600      -17.43520       -0.40720
H         22.26500      -18.20920       -0.85420
C         20.26700      -17.44720       -0.57540
H         19.80010      -18.24760       -1.14370
C         19.48490      -16.43420       -0.02650
H         18.40670      -16.44330       -0.16120
C         20.09280      -15.40320        0.68380
H         19.49440      -14.60090        1.10550
C         21.47130      -15.39740        0.86250
H         21.93850      -14.57580        1.39890
C         22.26030      -16.42630        0.33740
N         24.56460      -16.83060       -0.45040
C         25.81660      -16.65460        0.07480
H         26.70730      -16.87160       -0.50080
C         25.73460      -16.20060        1.35990
H         26.48170      -15.95600        2.10100
N         24.39210      -16.08550        1.63470
C         23.72740      -16.45820        0.49700
C         23.84710      -15.74110        2.93440
H         24.50940      -16.13160        3.71060
H         22.86510      -16.20330        3.05500
H         23.75910      -14.65660        3.06570
