15
Properties=species:S:1:pos:R:3:forces:R:3 energy=-12353.453785411652 stress="0.0 0.0 0.0 0.0 0.0 0.0 0.0 0.0 0.0" pbc="F F F"
C         11.23050      -17.35890        0.25220
N         12.55170      -17.01940       -0.03700
H         12.68830      -16.03380       -0.22110
N         13.79780      -19.08560        0.17070
C         15.17340      -19.29420        0.11070
H         15.60500      -20.27920        0.21200
C         15.80470      -18.12430       -0.08190
H         16.83110      -17.81420       -0.18800
O         14.83850      -17.14070       -0.14980
C         13.68110      -17.80740        0.01420
O         10.38840      -16.48680        0.22360
C         10.93590      -18.79770        0.57740
H         11.25490      -19.45670       -0.23330
H          9.86300      -18.88780        0.74760
H         11.48990      -19.11550        1.46400
