18
Properties=species:S:1:pos:R:3:forces:R:3 energy=-12979.94865035035 stress="0.0 0.0 0.0 0.0 0.0 0.0 0.0 0.0 0.0" pbc="F F F"
C          4.47480      -23.15400       -0.00450
H          5.02390      -24.09220       -0.01590
C          3.08370      -23.14630        0.01120
H          2.53630      -24.08530        0.02080
C          2.39340      -21.93730        0.00680
H          1.30620      -21.93310        0.01580
C          3.09380      -20.73370       -0.01500
H          2.55520      -19.78920       -0.02530
C          4.48390      -20.73900       -0.02280
H          5.04030      -19.80520       -0.03530
C          5.17990      -21.95040        0.00140
N          7.42200      -22.51560       -0.94040
C          8.70340      -22.14680       -0.56070
H          9.57300      -22.46620       -1.11750
C          8.63580      -21.37630        0.54540
H          9.34990      -20.87770        1.18180
O          7.31990      -21.23860        0.87560
C          6.65330      -21.96480       -0.05540
