18
Properties=species:S:1:pos:R:3:forces:R:3 energy=-8457.053102885202 stress="0.0 0.0 0.0 0.0 0.0 0.0 0.0 0.0 0.0" pbc="F F F"
C          5.49820      -23.16170       -0.07060
C          6.81020      -22.40440       -0.07040
H          7.63670      -23.12200       -0.01220
C          7.00650      -21.49560       -1.28750
H          6.99010      -22.07530       -2.21620
H          6.21900      -20.73750       -1.35420
H          7.96770      -20.97430       -1.22930
H          6.87180      -21.79510        0.84200
C          4.27570      -22.48480       -0.05330
H          4.26410      -21.39550       -0.04590
C          3.07360      -23.18400       -0.03420
H          2.13290      -22.63840       -0.02110
C          3.07220      -24.57620       -0.03350
H          2.13220      -25.12240       -0.02090
C          4.28200      -25.26200       -0.04690
H          4.29380      -26.34980       -0.04440
C          5.48220      -24.55680       -0.06040
H          6.42820      -25.09630       -0.07200
