19
Properties=species:S:1:pos:R:3:forces:R:3 energy=-12439.520073184482 stress="0.0 0.0 0.0 0.0 0.0 0.0 0.0 0.0 0.0" pbc="F F F"
C         21.33730      -34.83070        0.02230
H         21.90550      -33.90470        0.03560
C         19.94960      -34.82490        0.02790
H         19.40120      -33.88700        0.04590
C         19.27640      -36.04030        0.00310
H         18.19170      -36.08920        0.00070
C         20.03320      -37.20810       -0.01930
H         19.54530      -38.18150       -0.03820
N         21.36510      -37.23140       -0.00990
C         22.00920      -36.05570        0.01020
C         24.37460      -35.41740       -0.87210
H         24.12900      -34.60710       -1.54630
C         25.65940      -35.97270       -0.63310
H         26.59440      -35.66740       -1.08280
C         25.49940      -36.99070        0.27760
H         26.22060      -37.66620        0.71670
N         24.17460      -37.06310        0.59860
H         23.71560      -37.79670        1.11770
C         23.47870      -36.08950       -0.06930
