16
Properties=species:S:1:pos:R:3:forces:R:3 energy=-11813.099035313659 stress="0.0 0.0 0.0 0.0 0.0 0.0 0.0 0.0 0.0" pbc="F F F"
C         12.46920      -10.89810       -0.98310
N         13.48490      -10.79350       -0.05130
H         13.22140      -10.27490        0.77720
N         14.86660      -12.78530       -0.17390
C         16.22370      -12.97450       -0.06190
H         16.65750      -13.96320       -0.11980
C         16.87040      -11.78990        0.11460
H         17.91460      -11.54240        0.23520
N         15.87130      -10.83820        0.13170
H         15.98880       -9.83920        0.14810
C         14.69220      -11.49400       -0.04720
O         11.41360      -10.33150       -0.78280
C         12.76440      -11.70910       -2.21960
H         13.70150      -11.38510       -2.68150
H         11.93380      -11.58490       -2.91410
H         12.88800      -12.76460       -1.95710
