21
Properties=species:S:1:pos:R:3:forces:R:3 energy=-15739.652508263742 stress="0.0 0.0 0.0 0.0 0.0 0.0 0.0 0.0 0.0" pbc="F F F"
C         21.84910      -32.10230        0.46580
H         22.40300      -31.29470        0.93430
C         20.46670      -32.03060        0.38690
H         19.94200      -31.15530        0.76240
C         19.76820      -33.08660       -0.18310
H         18.68700      -33.07470       -0.27480
C         20.50520      -34.17870       -0.62800
H         20.00440      -35.03780       -1.07100
N         21.82910      -34.26950       -0.54170
C         22.50950      -33.23470       -0.03280
C         26.16870      -32.19900        0.02940
H         26.73010      -31.26940        0.05240
C         24.78090      -32.16580        0.04570
H         24.29310      -31.19510        0.04990
C         24.00410      -33.33050        0.02240
C         24.70670      -34.54050       -0.03650
C         26.09420      -34.59660       -0.05070
H         26.57120      -35.57070       -0.08830
C         26.82960      -33.42110       -0.01760
H         27.91460      -33.46150       -0.02980
F         24.06330      -35.71210       -0.03900
