17
Properties=species:S:1:pos:R:3:forces:R:3 energy=-12850.29886422737 stress="0.0 0.0 0.0 0.0 0.0 0.0 0.0 0.0 0.0" pbc="F F F"
C         15.74940      -21.95970       -0.00110
H         14.80030      -21.43330        0.00130
C         15.80940      -23.35070        0.00340
H         14.89730      -23.94200        0.00950
C         17.03870      -23.98990        0.00020
H         17.14520      -25.06660        0.00340
C         18.18200      -23.18320       -0.00760
N         18.14780      -21.84820       -0.01200
C         16.94860      -21.26250       -0.00870
H         16.95590      -20.17350       -0.01250
N         19.48200      -23.69780       -0.01150
H         20.17750      -22.96530       -0.01710
C         19.87760      -25.02820       -0.00870
N         21.23700      -25.18720       -0.01400
H         21.58100      -26.13250       -0.01230
H         21.89790      -24.42980       -0.01940
O         19.11440      -25.97820       -0.00220
