15
Properties=species:S:1:pos:R:3:forces:R:3 energy=-12353.395214762339 stress="0.0 0.0 0.0 0.0 0.0 0.0 0.0 0.0 0.0" pbc="F F F"
C         12.24280      -15.77590        0.42060
N         12.54550      -17.04930       -0.07150
H         11.71860      -17.59060       -0.28660
N         13.79070      -19.06570       -0.18910
C         15.15530      -19.31230       -0.08870
H         15.55850      -20.31110       -0.17580
C         15.81850      -18.16140        0.11840
H         16.85130      -17.88100        0.25050
O         14.87980      -17.14880        0.15760
C         13.71000      -17.78450       -0.03580
O         11.07670      -15.44530        0.45760
C         13.36660      -14.87390        0.86010
H         14.09740      -14.72820        0.06200
H         12.92000      -13.92110        1.14530
H         13.90330      -15.30290        1.70910
