11
Properties=species:S:1:pos:R:3:forces:R:3 energy=-5940.640886145862 stress="0.0 0.0 0.0 0.0 0.0 0.0 0.0 0.0 0.0" pbc="F F F"
F         13.27380      -26.49230        0.00690
C         14.40160      -25.68060       -0.00100
H         14.35980      -25.04660       -0.89620
H         14.35730      -25.03720        0.88610
C         15.64530      -26.54560        0.00020
H         16.50950      -25.90130        0.20810
H         15.57040      -27.25560        0.83220
C         15.84310      -27.28120       -1.32190
H         15.96880      -26.57280       -2.14930
H         14.97330      -27.90650       -1.54760
H         16.72810      -27.92430       -1.29240
