23
Properties=species:S:1:pos:R:3:forces:R:3 energy=-24888.61009466335 stress="0.0 0.0 0.0 0.0 0.0 0.0 0.0 0.0 0.0" pbc="F F F"
C          3.05350       -3.69810       -0.75710
H          3.09110       -4.78260       -0.77650
C          1.81680       -3.05950       -0.73420
H          0.91550       -3.66690       -0.73620
C          1.76810       -1.66640       -0.70930
S          0.27690       -0.68360       -0.67800
N         -0.97110       -1.76300       -0.68500
C         -1.29740       -2.43730        0.56000
H         -1.25990       -1.70670        1.37000
H         -0.61570       -3.26640        0.79470
H         -2.31630       -2.82630        0.48420
C         -1.32120       -2.39340       -1.94640
H         -1.29880       -1.63490       -2.73100
H         -2.33860       -2.78520       -1.86500
H         -0.64440       -3.21360       -2.22290
C          2.94440       -0.92120       -0.70740
H          2.88260        0.16370       -0.68780
C          4.17530       -1.56690       -0.73040
H          5.09240       -0.98400       -0.72890
C          4.23260       -2.95750       -0.75530
H          5.19430       -3.46390       -0.77340
O          0.21220        0.05920       -1.92810
O          0.23620        0.01490        0.59840
