19
Properties=species:S:1:pos:R:3:forces:R:3 energy=-11976.929472851416 stress="0.0 0.0 0.0 0.0 0.0 0.0 0.0 0.0 0.0" pbc="F F F"
C         -0.12130        0.11410       -1.55680
N         -1.48700        0.11720       -1.14660
H         -2.15290        0.65670       -1.68540
C          0.86710        0.61800       -0.71240
H          0.57880        1.02890        0.25280
C          2.20060        0.59950       -1.11010
H          2.96340        0.99660       -0.44520
C          2.55760        0.07340       -2.34770
H          3.60030        0.05730       -2.65460
C          1.57080       -0.42990       -3.19070
H          1.83890       -0.84170       -4.16090
C          0.23500       -0.40730       -2.80160
H         -0.53850       -0.80460       -3.45520
C         -2.09580       -0.77990       -0.29400
C         -1.19710       -1.76570        0.42040
H         -1.82760       -2.50520        0.91420
H         -0.50370       -2.25570       -0.27030
H         -0.59140       -1.25270        1.17610
O         -3.30230       -0.74950       -0.13220
