19
Properties=species:S:1:pos:R:3:forces:R:3 energy=-12439.311902080379 stress="0.0 0.0 0.0 0.0 0.0 0.0 0.0 0.0 0.0" pbc="F F F"
C         21.36480      -34.87330       -0.05370
H         21.96300      -33.96850       -0.10610
C         19.97750      -34.82620       -0.05410
H         19.45790      -33.87320       -0.10820
C         19.27320      -36.02110        0.01400
H         18.18710      -36.04240        0.01600
C         19.99890      -37.20560        0.07900
H         19.48580      -38.16380        0.13140
N         21.33000      -37.26890        0.08210
C         22.00300      -36.11340        0.02190
C         24.37530      -36.15670        1.08150
H         24.11600      -36.13820        2.13190
C         25.68690      -36.16070        0.53290
H         26.61860      -36.15100        1.08300
C         25.55680      -36.17940       -0.83250
H         26.29850      -36.18960       -1.61960
N         24.21900      -36.18520       -1.12730
H         23.83050      -36.20890       -2.05730
C         23.48550      -36.17630        0.03390
