14
Properties=species:S:1:pos:R:3:forces:R:3 energy=-8266.83169169764 stress="0.0 0.0 0.0 0.0 0.0 0.0 0.0 0.0 0.0" pbc="F F F"
C          2.71140       -2.82090        0.86310
H          3.39370       -3.66490        1.03000
H          3.18630       -2.12280        0.16980
H          2.58150       -2.29020        1.81190
N          1.42720       -3.21340        0.30200
H          1.41810       -3.24790       -0.70830
C          0.72740       -4.31870        0.77510
N          0.75700       -4.47630        2.13840
H          1.00540       -3.66140        2.67750
C         -0.15820       -5.41610        2.75500
H         -0.19790       -6.31320        2.13620
H          0.21190       -5.68270        3.74790
H         -1.17870       -5.02110        2.84440
O          0.10290       -5.05640        0.02880
