14
Properties=species:S:1:pos:R:3:forces:R:3 energy=-31478.184854245002 stress="0.0 0.0 0.0 0.0 0.0 0.0 0.0 0.0 0.0" pbc="F F F"
C          2.01030      -24.63220       -0.88220
H          0.95750      -24.65310       -1.13160
C          2.78600      -25.66230       -0.45490
H          2.44160      -26.67690       -0.30220
N          4.10250      -25.36180       -0.20830
C          4.30880      -24.10420       -0.43270
S          2.95800      -23.19920       -0.99590
S          5.88850      -23.29370       -0.19200
C          7.05590      -24.59760       -0.50900
H          6.82060      -25.44300        0.14190
H          8.04400      -24.19280       -0.27730
H          6.99600      -24.87650       -1.56310
O          5.99380      -22.93720        1.21640
O          6.00740      -22.28660       -1.23450
