10
Properties=species:S:1:pos:R:3:forces:R:3 energy=-6263.400679695898 stress="0.0 0.0 0.0 0.0 0.0 0.0 0.0 0.0 0.0" pbc="F F F"
O          0.07060       -2.08960        1.24120
H         -0.11930       -1.48790        1.97060
C          0.33630       -3.37260        1.78130
H         -0.49880       -3.75280        2.39000
H          1.23480       -3.33630        2.41880
C          0.56660       -4.33700        0.62330
H          1.34650       -5.05620        0.89220
H          0.91530       -3.76590       -0.24770
O         -0.57190       -5.12480        0.32710
H         -1.23450       -4.53390       -0.05300
