22
Properties=species:S:1:pos:R:3:forces:R:3 energy=-15303.375104885608 stress="0.0 0.0 0.0 0.0 0.0 0.0 0.0 0.0 0.0" pbc="F F F"
C         12.81260      -33.38540       -1.19640
H         13.34290      -33.37420       -2.14540
C         11.42240      -33.41430       -1.16550
H         10.86200      -33.41070       -2.09620
C         10.75180      -33.45850        0.05350
H          9.66500      -33.48560        0.07770
C         11.47670      -33.47390        1.24170
H         10.95910      -33.51370        2.19630
C         12.86660      -33.43260        1.20920
H         13.43580      -33.43840        2.13670
C         13.54710      -33.37450       -0.00920
C         17.14170      -32.23770        0.46720
H         17.67310      -31.37230        0.85200
C         15.75100      -32.25280        0.46330
H         15.19650      -31.40130        0.85020
C         15.03580      -33.34260       -0.03900
C         15.77750      -34.42930       -0.50040
C         17.16280      -34.44630       -0.49790
H         17.67880      -35.32170       -0.87810
C         17.84700      -33.33710       -0.01310
H         18.93340      -33.33500       -0.00920
F         15.12490      -35.50390       -0.97880
