16
Properties=species:S:1:pos:R:3:forces:R:3 energy=-11916.521686085785 stress="0.0 0.0 0.0 0.0 0.0 0.0 0.0 0.0 0.0" pbc="F F F"
C         12.55530       -3.35950        1.20760
N         13.13510       -3.74210        0.01080
H         12.90290       -3.22180       -0.82420
C         14.44130       -5.89640       -0.04330
H         13.65440       -6.63480       -0.08510
C         15.85420       -6.12600       -0.00180
H         16.36260       -7.08140       -0.01250
C         16.42820       -4.90030        0.05400
H         17.45260       -4.56030        0.10030
O         15.48810       -3.92670        0.05150
C         14.27450       -4.55050       -0.00990
O         12.89440       -3.84870        2.26110
C         11.46980       -2.31180        1.07300
H         10.66840       -2.66010        0.41290
H         11.87060       -1.38010        0.65860
H         11.05800       -2.11290        2.06260
