18
Properties=species:S:1:pos:R:3:forces:R:3 energy=-12980.036801255294 stress="0.0 0.0 0.0 0.0 0.0 0.0 0.0 0.0 0.0" pbc="F F F"
C          4.48670      -20.73880        0.00210
H          5.04040      -19.80410       -0.01160
C          3.09690      -20.73440        0.00440
H          2.55870      -19.78960        0.00440
C          2.39500      -21.93800       -0.00110
H          1.30800      -21.93260       -0.00260
C          3.08430      -23.14820       -0.00750
H          2.53650      -24.08690       -0.01420
C          4.47440      -23.15570       -0.00220
H          5.02950      -24.09020        0.00900
C          5.17970      -21.95190        0.01540
N          7.44330      -22.80110        0.59790
C          8.71470      -22.33730        0.29940
H          9.60210      -22.82720        0.67450
C          8.61580      -21.24480       -0.48640
H          9.31370      -20.56960       -0.95540
O          7.28960      -20.99680       -0.68860
C          6.64840      -21.98380       -0.01840
