10
Properties=species:S:1:pos:R:3:forces:R:3 energy=-6263.48215271593 stress="0.0 0.0 0.0 0.0 0.0 0.0 0.0 0.0 0.0" pbc="F F F"
O          0.06300       -2.09330        1.24500
H          0.31920       -1.42010        1.88440
C          0.33160       -3.37860        1.79090
H          1.22980       -3.33460        2.42230
H         -0.50610       -3.72640        2.41190
C          0.57670       -4.33950        0.61570
H          1.26120       -5.13710        0.92400
H         -0.37760       -4.82150        0.34190
O          1.12920       -3.68000       -0.49350
H          0.79120       -2.77210       -0.44830
