22
Properties=species:S:1:pos:R:3:forces:R:3 energy=-13046.156441456933 stress="0.0 0.0 0.0 0.0 0.0 0.0 0.0 0.0 0.0" pbc="F F F"
C          4.01290       -2.09510       -1.73100
H          5.03560       -2.02050       -2.08940
C          3.28900       -0.93500       -1.47360
H          3.73900        0.03320       -1.67760
C          1.98270       -1.01680       -0.98620
C          1.10800        0.18360       -0.74220
C          1.38930       -2.27020       -0.83090
H          0.35340       -2.31840       -0.50670
C          2.11790       -3.42820       -1.07130
H          1.65400       -4.39980       -0.92020
C          3.43510       -3.34330       -1.51580
H          4.00560       -4.24810       -1.70780
N          1.71440        1.39050       -0.47150
C          0.84230        2.55200       -0.46010
H          0.07730        2.43590       -1.22770
H          0.33790        2.67330        0.51010
H          1.43530        3.44830       -0.66260
C          2.87500        1.51940        0.39340
H          3.39750        0.56880        0.50450
H          3.56490        2.26430       -0.02040
H          2.58060        1.85790        1.39780
O         -0.10820        0.09090       -0.83040
