10
Properties=species:S:1:pos:R:3:forces:R:3 energy=-6263.588925452116 stress="0.0 0.0 0.0 0.0 0.0 0.0 0.0 0.0 0.0" pbc="F F F"
O          0.11280       -2.10330        1.22160
H         -0.30300       -1.54300        1.88630
C          0.35760       -3.38300        1.79110
H          1.24270       -3.36530        2.44540
H         -0.50970       -3.72890        2.37250
C          0.57140       -4.32450        0.62360
H          1.46650       -4.01380        0.06130
H          0.73600       -5.34450        0.98540
O         -0.57390       -4.35100       -0.19640
H         -0.78300       -3.42080       -0.36670
