16
Properties=species:S:1:pos:R:3:forces:R:3 energy=-20705.225792959856 stress="0.0 0.0 0.0 0.0 0.0 0.0 0.0 0.0 0.0" pbc="F F F"
C         28.25450       -5.40270        0.04510
N         29.45010       -4.72730       -0.11040
H         29.40460       -3.73230       -0.27330
C         31.08450       -6.60290        0.14000
H         30.34840       -7.38000        0.29550
C         32.49960       -6.78070        0.11760
H         32.98510       -7.74020        0.25850
C         33.18030       -5.62370       -0.09870
H         34.25030       -5.47910       -0.16180
S         32.11130       -4.27470       -0.28270
C         30.72760       -5.30360       -0.06180
O         28.18970       -6.59770        0.24520
C         27.03770       -4.50380       -0.05900
H         27.05860       -3.72390        0.70980
H         26.14380       -5.11300        0.07450
H         26.99460       -4.01290       -1.03720
