18
Properties=species:S:1:pos:R:3:forces:R:3 energy=-12875.964639441805 stress="0.0 0.0 0.0 0.0 0.0 0.0 0.0 0.0 0.0" pbc="F F F"
C         13.93030      -15.05960        0.00180
H         14.49670      -14.13280        0.00520
C         12.54210      -15.05770        0.00250
H         11.99090      -14.12100        0.01150
C         11.87460      -16.27560       -0.00600
H         10.78950      -16.32870       -0.00410
C         12.63440      -17.44090       -0.01590
H         12.15040      -18.41580       -0.02080
N         13.96660      -17.46120       -0.01990
C         14.60020      -16.28420       -0.01770
N         16.87890      -16.50710       -1.03640
C         18.15410      -16.37030       -0.54300
H         19.01700      -16.48900       -1.18510
C         18.13060      -16.08300        0.79340
H         18.90880      -15.91010        1.52280
N         16.79800      -16.04050        1.12510
H         16.41280      -15.85850        2.03890
C         16.08790      -16.30980       -0.00840
