19
Properties=species:S:1:pos:R:3:forces:R:3 energy=-11977.004977624632 stress="0.0 0.0 0.0 0.0 0.0 0.0 0.0 0.0 0.0" pbc="F F F"
C         -0.13180        0.05540       -1.52770
N         -1.47900        0.13090       -1.10670
H         -1.63710        0.66310       -0.26420
C          0.87480        0.33300       -0.59920
H          0.61260        0.55570        0.43320
C          2.20840        0.31450       -0.98840
H          2.98330        0.52170       -0.25460
C          2.54930        0.04180       -2.31000
H          3.59120        0.03130       -2.61820
C          1.54140       -0.21430       -3.23490
H          1.79600       -0.42740       -4.27060
C          0.20340       -0.21060       -2.85580
H         -0.58020       -0.42480       -3.57340
C         -2.50150       -0.69300       -1.52310
C         -3.79590       -0.49400       -0.75590
H         -4.55750       -1.14060       -1.19050
H         -4.12790        0.54800       -0.81370
H         -3.67020       -0.75050        0.30200
O         -2.38060       -1.49430       -2.42920
