13
Properties=species:S:1:pos:R:3:forces:R:3 energy=-10846.651935210524 stress="0.0 0.0 0.0 0.0 0.0 0.0 0.0 0.0 0.0" pbc="F F F"
O          4.61700      -16.80130        1.08720
C          4.06970      -17.71410       -1.06700
H          4.48730      -17.24280       -1.96450
H          3.06920      -17.32480       -0.86910
H          4.02630      -18.79300       -1.25840
C          4.95560      -17.44560        0.12320
N          6.73260      -19.22410        0.06710
C          8.11850      -19.15960        0.02300
H          8.73020      -20.05060        0.03430
C          8.49800      -17.86360       -0.02610
H          9.44130      -17.34110       -0.06920
O          7.37190      -17.09690       -0.00960
C          6.36090      -17.98910        0.03020
