19
Properties=species:S:1:pos:R:3:forces:R:3 energy=-12882.68954873375 stress="0.0 0.0 0.0 0.0 0.0 0.0 0.0 0.0 0.0" pbc="F F F"
C         26.83820       -9.92000       -1.14440
N         27.25590      -10.63980       -0.03520
H         26.53230      -11.09570        0.50310
N         28.65590      -12.60890       -0.03340
C         30.01940      -12.78990       -0.01570
H         30.45500      -13.78030       -0.02550
C         30.66320      -11.58790        0.01870
H         31.71010      -11.31570        0.04390
N         29.67100      -10.63180        0.02210
C         28.49410      -11.31030       -0.01530
O         27.60470       -9.59300       -2.02860
C         25.36590       -9.56430       -1.14450
H         24.75980      -10.44740       -1.37480
H         25.04860       -9.17690       -0.17150
H         25.19340       -8.81250       -1.91400
C         29.85870       -9.19300        0.03610
H         30.89610       -8.98990        0.31090
H         29.64040       -8.76310       -0.94400
H         29.20010       -8.74300        0.78250
