20
Properties=species:S:1:pos:R:3:forces:R:3 energy=-13476.186455067249 stress="0.0 0.0 0.0 0.0 0.0 0.0 0.0 0.0 0.0" pbc="F F F"
C         15.89050      -23.97980        0.05920
H         15.38880      -23.01730        0.09370
C         17.27690      -24.03460        0.06310
H         17.86210      -23.11850        0.07490
C         17.89960      -25.27590        0.04710
H         18.98090      -25.37170        0.04430
C         17.09030      -26.40780        0.04220
H         17.53190      -27.40340        0.03770
N         15.76080      -26.37080        0.05100
C         15.16470      -25.17490        0.03700
C         11.55880      -24.11490       -0.40550
H         10.97570      -23.26250       -0.74510
C         12.94530      -24.06540       -0.42100
H         13.44920      -23.18030       -0.79800
C         13.66850      -25.17480        0.02840
N         13.06970      -26.29490        0.44380
C         11.74020      -26.32330        0.46470
H         11.29630      -27.25020        0.82550
C         10.93330      -25.26650        0.05410
H          9.85180      -25.35260        0.09060
