17
Properties=species:S:1:pos:R:3:forces:R:3 energy=-12849.874835254966 stress="0.0 0.0 0.0 0.0 0.0 0.0 0.0 0.0 0.0" pbc="F F F"
C         15.42910      -17.03180       -0.06980
H         14.48250      -16.50710       -0.11980
C         15.50910      -18.41820       -0.06820
H         14.61620      -19.03860       -0.11500
N         16.66700      -19.07280       -0.01730
C         17.76620      -18.31420        0.02700
N         17.81670      -16.98350        0.08210
C         16.64010      -16.36010        0.00540
H         16.68030      -15.27300        0.02060
N         18.97980      -19.02020        0.04700
H         18.87140      -19.94340       -0.36530
C         19.86620      -19.12550        1.13220
C         20.00910      -17.92700        2.03870
H         19.10520      -17.77740        2.63620
H         20.17100      -17.01130        1.46440
H         20.85350      -18.11690        2.70270
O         20.51550      -20.14170        1.26560
