20
Properties=species:S:1:pos:R:3:forces:R:3 energy=-13476.440765882262 stress="0.0 0.0 0.0 0.0 0.0 0.0 0.0 0.0 0.0" pbc="F F F"
C         21.67570      -26.61220        0.01170
H         22.22440      -27.55010        0.00570
C         20.28560      -26.60640        0.01620
H         19.74150      -27.54740        0.02690
C         19.59260      -25.39870       -0.00000
H         18.50590      -25.39510       -0.00170
C         20.29350      -24.19550       -0.00990
H         19.75580      -23.25080       -0.01490
C         21.68350      -24.19930       -0.00040
H         22.23880      -23.26560        0.01950
C         22.38320      -25.40800       -0.00990
C         25.79700      -24.50870        0.82400
H         26.27380      -23.74840        1.43980
N         24.46740      -24.47500        0.77590
C         23.87200      -25.40980        0.02600
N         24.49600      -26.37420       -0.66070
C         25.82610      -26.36450       -0.62480
H         26.32720      -27.13810       -1.20380
C         26.54750      -25.44180        0.12110
H         27.63130      -25.45170        0.15570
