22
Properties=species:S:1:pos:R:3:forces:R:3 energy=-13509.2609945497 stress="0.0 0.0 0.0 0.0 0.0 0.0 0.0 0.0 0.0" pbc="F F F"
C         21.47390      -15.39220        0.85740
H         21.94290      -14.57070        1.39270
C         20.09450      -15.40240        0.68620
H         19.49570      -14.60170        1.11050
C         19.48610      -16.43620       -0.01950
H         18.40720      -16.44880       -0.14830
C         20.26800      -17.44820       -0.57060
H         19.80020      -18.25130       -1.13430
C         21.64800      -17.43190       -0.41010
H         22.26700      -18.20520       -0.85850
C         22.26310      -16.41810        0.32670
N         24.57170      -16.78090       -0.47250
C         25.82160      -16.61030        0.06010
H         26.71460      -16.80090       -0.52100
C         25.73420      -16.19730        1.35870
H         26.47830      -15.96910        2.10800
N         24.39020      -16.10280        1.63470
C         23.73060      -16.44710        0.48550
C         23.83820      -15.79660        2.94090
H         24.49290      -16.21460        3.70940
H         22.85320      -16.25740        3.03930
H         23.75360      -14.71640        3.10500
