16
Properties=species:S:1:pos:R:3:forces:R:3 energy=-10906.794303837629 stress="0.0 0.0 0.0 0.0 0.0 0.0 0.0 0.0 0.0" pbc="F F F"
C          7.55080      -21.30780        0.18180
H          6.65220      -20.70670        0.28750
C          7.51790      -22.69010        0.32440
H          6.58570      -23.20440        0.54330
C          8.70020      -23.40370        0.16970
H          8.73130      -24.48750        0.23860
C          9.86850      -22.69410       -0.09350
N          9.91600      -21.36890       -0.24400
C          8.76880      -20.70040       -0.10730
H          8.83340      -19.62120       -0.23110
C         11.17650      -23.42850       -0.30890
O         11.31850      -24.18980       -1.23940
C         12.22350      -23.20370        0.75360
H         11.87220      -23.58890        1.71830
H         12.39430      -22.12820        0.88020
H         13.15150      -23.70190        0.46730
