16
Properties=species:S:1:pos:R:3:forces:R:3 energy=-10906.739374466826 stress="0.0 0.0 0.0 0.0 0.0 0.0 0.0 0.0 0.0" pbc="F F F"
C          7.55110      -21.30990        0.17640
H          6.65040      -20.70970        0.26940
C          7.51670      -22.69270        0.30870
H          6.58180      -23.20860        0.51170
C          8.70430      -23.40370        0.18440
H          8.73590      -24.48290        0.30210
C          9.87110      -22.69480       -0.08670
N          9.92370      -21.36720       -0.20990
C          8.77560      -20.69960       -0.07650
H          8.84420      -19.61880       -0.18240
C         11.20200      -23.41360       -0.20950
O         11.79030      -23.81060        0.77010
C         11.68800      -23.62490       -1.62210
H         10.97940      -24.24950       -2.17870
H         12.67400      -24.09350       -1.60920
H         11.73770      -22.65880       -2.13930
