14
Properties=species:S:1:pos:R:3:forces:R:3 energy=-4310.534959262782 stress="0.0 0.0 0.0 0.0 0.0 0.0 0.0 0.0 0.0" pbc="F F F"
C          0.12900        0.16460        0.16040
H          1.02650        0.11280       -0.46830
H         -0.63670        0.71140       -0.39960
C         -0.36350       -1.23030        0.54320
H         -0.72980       -1.75000       -0.35110
C          0.69320       -2.10490        1.23030
H          0.21820       -3.03070        1.57850
H          1.44540       -2.40930        0.48860
C          1.40840       -1.42490        2.39690
H          0.69400       -1.05840        3.14450
H          2.08730       -2.12070        2.90060
H          2.00480       -0.57070        2.05930
H         -1.23100       -1.12410        1.21000
H          0.37630        0.76010        1.04560
