22
Properties=species:S:1:pos:R:3:forces:R:3 energy=-15303.414880951448 stress="0.0 0.0 0.0 0.0 0.0 0.0 0.0 0.0 0.0" pbc="F F F"
C         12.84860      -32.36220       -0.69580
H         13.40530      -31.59320       -1.22790
C         11.45880      -32.33180       -0.68220
H         10.93120      -31.53910       -1.20590
C         10.74660      -33.30600        0.01210
H          9.65990      -33.27830        0.02940
C         11.43200      -34.31460        0.68310
H         10.88300      -35.07870        1.22640
C         12.82150      -34.35400        0.65450
H         13.35720      -35.14910        1.16670
C         13.54500      -33.38020       -0.03860
C         17.13410      -32.23190        0.45390
H         17.65720      -31.35410        0.82140
C         15.74430      -32.25470        0.44060
H         15.18690      -31.39300        0.80070
C         15.03400      -33.37060       -0.01150
C         15.78760      -34.44790       -0.47800
C         17.17290      -34.44820       -0.48960
H         17.69550      -35.32280       -0.86270
C         17.84900      -33.33020       -0.01480
H         18.93520      -33.31850       -0.01320
F         15.14940      -35.54160       -0.93660
