22
Properties=species:S:1:pos:R:3:forces:R:3 energy=-13509.202491921447 stress="0.0 0.0 0.0 0.0 0.0 0.0 0.0 0.0 0.0" pbc="F F F"
C         21.46460      -15.31750        0.75780
H         21.88920      -14.44630        1.23800
C         20.08360      -15.37480        0.61410
H         19.47760      -14.55250        0.98380
C         19.47990      -16.46990        0.00470
H         18.39990      -16.51100       -0.10590
C         20.27370      -17.51210       -0.46180
H         19.81760      -18.37510       -0.94050
C         21.65280      -17.45610       -0.31890
H         22.27580      -18.26850       -0.68230
C         22.27340      -16.35980        0.29250
N         24.44350      -17.42160       -0.07000
C         25.75270      -17.13690        0.18400
H         26.55090      -17.81390       -0.09570
C         25.85930      -15.92940        0.80960
H         26.70860      -15.36610        1.16780
N         24.57730      -15.45280        0.94670
C         23.74770      -16.39970        0.39430
C         24.28040      -14.17620        1.57420
H         25.22680      -13.72740        1.88190
H         23.65830      -14.30370        2.46540
H         23.79010      -13.49150        0.87540
