11
Properties=species:S:1:pos:R:3:forces:R:3 energy=-5940.48331037827 stress="0.0 0.0 0.0 0.0 0.0 0.0 0.0 0.0 0.0" pbc="F F F"
F         13.25270      -26.46880        0.00670
C         14.39600      -25.68000       -0.00050
H         14.36170      -25.02740        0.88070
H         14.34660      -25.04630       -0.89330
C         15.65280      -26.55410        0.00020
H         16.31150      -26.24500       -0.81960
H         15.33530      -27.57900       -0.21960
C         16.42430      -26.49680        1.31670
H         16.75700      -25.47500        1.53250
H         15.79860      -26.82690        2.15370
H         17.31060      -27.13790        1.28720
