19
Properties=species:S:1:pos:R:3:forces:R:3 energy=-12439.887945999042 stress="0.0 0.0 0.0 0.0 0.0 0.0 0.0 0.0 0.0" pbc="F F F"
C          5.63240      -17.47310        0.03560
H          6.21180      -18.39230        0.06010
C          4.24460      -17.49800        0.01840
H          3.72220      -18.45100        0.02380
C          3.52400      -16.30660       -0.00390
H          2.43770      -16.32700       -0.01710
C          4.20110      -15.08950       -0.00560
H          3.64590      -14.15500       -0.01980
C          5.59040      -15.06240        0.00950
H          6.09720      -14.09920        0.02200
C          6.31860      -16.25510        0.02480
N          8.52570      -17.34890        0.24070
C          9.82590      -16.92360        0.16950
H         10.65270      -17.60850        0.30600
C          9.88200      -15.58320       -0.08790
H         10.70690      -14.89860       -0.21590
N          8.57090      -15.17850       -0.16860
H          8.25240      -14.25380       -0.40820
C          7.78800      -16.27830        0.03640
