15
Properties=species:S:1:pos:R:3:forces:R:3 energy=-5346.46113982925 stress="0.0 0.0 0.0 0.0 0.0 0.0 0.0 0.0 0.0" pbc="F F F"
C          4.32480        0.40440       -1.78470
H          5.40530        0.54840       -1.68230
H          3.83070        1.32130       -1.44490
C          3.85180       -0.81300       -0.99010
H          4.08820       -0.70290        0.07700
H          4.41790       -1.69000       -1.33850
C          2.37790       -1.08620       -1.15140
H          1.94450       -0.84390       -2.12610
C          1.60160       -1.64800       -0.22850
H          2.03380       -1.88390        0.74690
C          0.14950       -1.97780       -0.40780
H         -0.46710       -1.45730        0.33480
H         -0.03100       -3.05100       -0.27230
H          4.10410        0.27930       -2.85090
H         -0.20650       -1.69610       -1.40460
