19
Properties=species:S:1:pos:R:3:forces:R:3 energy=-21331.95516079369 stress="0.0 0.0 0.0 0.0 0.0 0.0 0.0 0.0 0.0" pbc="F F F"
C         21.78670       -8.53110        0.00740
H         22.32220       -7.58570        0.00350
C         20.39700       -8.51820        0.04060
H         19.86920       -7.56870        0.07540
C         19.68770       -9.71490        0.02900
H         18.60130       -9.70780        0.05570
C         20.37990      -10.92170       -0.01880
H         19.83550      -11.86220       -0.02970
C         21.76930      -10.93870       -0.05350
H         22.28590      -11.89490       -0.08570
C         22.49460       -9.73770       -0.03540
C         24.82500       -8.67620        0.11900
H         24.48790       -7.67910        0.37830
C         26.19950       -9.02750       -0.02090
H         27.02020       -8.32860        0.09800
C         26.37190      -10.34410       -0.32200
H         27.30080      -10.87450       -0.48340
S         24.87020      -11.16940       -0.43240
C         23.97220       -9.72860       -0.07670
