14
Properties=species:S:1:pos:R:3:forces:R:3 energy=-19198.77989713921 stress="0.0 0.0 0.0 0.0 0.0 0.0 0.0 0.0 0.0" pbc="F F F"
O         21.52090       -4.41290       -0.97520
C         20.97000       -5.77550        0.91340
H         21.27330       -5.40470        1.89900
H         19.94280       -5.47400        0.70010
H         21.03930       -6.86870        0.95030
C         21.89140       -5.21300       -0.14500
C         23.84100       -6.89330       -0.06480
H         23.21040       -7.77510       -0.12650
C         25.26610       -6.91350       -0.00640
H         25.86470       -7.81750       -0.01040
C         25.79510       -5.65860        0.05120
H         26.84030       -5.38090        0.10240
S         24.58220       -4.44240        0.02280
C         23.32820       -5.62780       -0.02650
