14
Properties=species:S:1:pos:R:3:forces:R:3 energy=-10306.933930450543 stress="0.0 0.0 0.0 0.0 0.0 0.0 0.0 0.0 0.0" pbc="F F F"
O          5.58970      -10.04600        0.62310
C          4.64520      -12.06200       -0.28260
H          4.78870      -13.08390        0.08520
H          3.68570      -11.65970        0.04700
H          4.67360      -12.11160       -1.37640
C          5.76040      -11.17560        0.20340
N          7.54320      -12.94450        0.04710
C          8.90940      -12.88420       -0.01490
H          9.51500      -13.78110       -0.03790
C          9.33660      -11.58010       -0.03240
H         10.32290      -11.13960       -0.07220
N          8.19760      -10.82720        0.01530
H          8.10920       -9.82490        0.09800
C          7.14520      -11.68930        0.04120
