16
Properties=species:S:1:pos:R:3:forces:R:3 energy=-9433.374375608728 stress="0.0 0.0 0.0 0.0 0.0 0.0 0.0 0.0 0.0" pbc="F F F"
C         -2.11980       -0.95910       -2.13330
H         -2.64830       -1.77770       -2.61530
C         -2.83050        0.03610       -1.46720
H         -3.91610       -0.00040       -1.42950
C         -2.14300        1.07800       -0.84950
H         -2.69100        1.85770       -0.32650
C         -0.75400        1.12890       -0.89690
H         -0.19560        1.93360       -0.42700
C         -0.05210        0.13120       -1.56680
C         -0.72980       -0.91930       -2.18030
H         -0.15580       -1.68490       -2.69690
O          1.31800        0.22690       -1.66140
C          2.02540       -0.61380       -0.76960
H          3.08800       -0.44880       -0.96140
H          1.79250       -1.67450       -0.93820
H          1.80410       -0.36250        0.27670
