18
Properties=species:S:1:pos:R:3:forces:R:3 energy=-6416.029085253335 stress="0.0 0.0 0.0 0.0 0.0 0.0 0.0 0.0 0.0" pbc="F F F"
C          4.29510       -0.67200        0.53460
H          5.37210       -0.47890        0.56930
H          3.78940        0.18460        0.99390
C          3.84670       -0.87860       -0.91390
H          4.15240       -0.00440       -1.50370
H          4.39690       -1.72560       -1.35170
C          2.36360       -1.09980       -1.14310
C          1.88080       -0.67140       -2.50870
H          2.42100       -1.20860       -3.29980
H          0.81380       -0.84650       -2.65950
H          2.06710        0.39880       -2.66400
C          1.58610       -1.68520       -0.22890
H          2.03520       -1.96220        0.72320
C          0.12870       -2.01710       -0.33730
H         -0.03400       -3.09290       -0.19570
H         -0.44220       -1.51000        0.45050
H          4.10590       -1.55390        1.15610
H         -0.30600       -1.73710       -1.29880
