13
Properties=species:S:1:pos:R:3:forces:R:3 energy=-10846.640621190774 stress="0.0 0.0 0.0 0.0 0.0 0.0 0.0 0.0 0.0" pbc="F F F"
O          4.20870      -17.58640       -0.87410
C          4.63670      -16.69850        1.31700
H          5.28330      -15.82050        1.42840
H          3.59010      -16.38960        1.28900
H          4.81930      -17.34460        2.18390
C          4.98050      -17.42150        0.04000
N          6.73760      -19.23000       -0.00570
C          8.12450      -19.17530        0.00820
H          8.72690      -20.07300        0.01740
C          8.51800      -17.88280        0.00940
H          9.46570      -17.36710        0.01580
O          7.39690      -17.10560        0.00140
C          6.37580      -17.99260       -0.02820
