18
Properties=species:S:1:pos:R:3:forces:R:3 energy=-21768.37152743107 stress="0.0 0.0 0.0 0.0 0.0 0.0 0.0 0.0 0.0" pbc="F F F"
C         30.17870       -8.35140        0.00550
H         30.73210       -7.41760        0.02100
C         28.79020       -8.35310       -0.00770
H         28.23990       -7.41590       -0.01870
C         28.11930       -9.56970       -0.00840
H         27.03460       -9.61900       -0.02130
C         28.87810      -10.73640        0.01260
H         28.39530      -11.71160        0.01730
N         30.20710      -10.75220        0.03220
C         30.85220       -9.57520        0.01700
C         33.22510       -8.67960       -0.36410
H         32.93880       -7.70030       -0.73270
C         34.57710       -9.11860       -0.24160
H         35.44130       -8.50800       -0.48080
C         34.66420      -10.40240        0.21180
H         35.55980      -10.98150        0.39620
S         33.11820      -11.09950        0.48110
C         32.32360       -9.63870        0.01380
