22
Properties=species:S:1:pos:R:3:forces:R:3 energy=-13046.048691585216 stress="0.0 0.0 0.0 0.0 0.0 0.0 0.0 0.0 0.0" pbc="F F F"
C          3.95110       -2.06210       -1.85670
H          4.92760       -1.95290       -2.32170
C          3.18770       -0.93510       -1.58150
H          3.55230        0.05910       -1.82140
C          1.93140       -1.05150       -0.98010
C          1.22480        0.24760       -0.67980
C          1.44870       -2.32230       -0.66350
H          0.45600       -2.45900       -0.24810
C          2.21070       -3.45150       -0.94710
H          1.81890       -4.43370       -0.69780
C          3.46510       -3.32650       -1.53650
H          4.05870       -4.21110       -1.75050
N          0.00260        0.23780       -0.04370
C         -0.76260        1.47220       -0.12670
H         -0.58710        1.94330       -1.09330
H         -0.46660        2.18420        0.65760
H         -1.82680        1.24820       -0.01420
C         -0.32130       -0.58010        1.11600
H          0.55590       -1.11870        1.48430
H         -1.12070       -1.29820        0.89250
H         -0.68340        0.06270        1.92770
O          1.69390        1.29780       -1.09860
