14
Properties=species:S:1:pos:R:3:forces:R:3 energy=-4310.458954228677 stress="0.0 0.0 0.0 0.0 0.0 0.0 0.0 0.0 0.0" pbc="F F F"
C          0.12730        0.16080        0.16370
H          0.96630        0.10610       -0.54110
H         -0.66140        0.76050       -0.30220
C         -0.37420       -1.23300        0.53970
H         -0.75490       -1.75120       -0.35000
C          0.70180       -2.09770        1.22080
H          1.46240       -1.44970        1.67530
H          0.25050       -2.65830        2.04930
C          1.35990       -3.09510        0.26810
H          1.86100       -2.58230       -0.56230
H          2.10760       -3.70880        0.78110
H          0.61120       -3.76840       -0.16440
H         -1.23360       -1.12040        1.21280
H          0.47820        0.69810        1.05210
