13
Properties=species:S:1:pos:R:3:forces:R:3 energy=-18603.357834000897 stress="0.0 0.0 0.0 0.0 0.0 0.0 0.0 0.0 0.0" pbc="F F F"
C         -1.13580       -1.40910       -0.65170
H         -0.51020       -1.21500       -1.52430
H         -0.83370       -0.79040        0.19590
H         -2.18530       -1.23520       -0.89450
S         -0.98900       -3.11830       -0.18840
O         -1.23490       -3.91930       -1.37870
N          0.60790       -3.23400        0.27110
H          0.63860       -3.77010        1.13060
O         -1.75720       -3.32910        1.02690
C          1.60740       -3.58060       -0.73520
H          1.75860       -2.73880       -1.41700
H          1.33020       -4.46570       -1.31880
H          2.54750       -3.76830       -0.21260
