23
Properties=species:S:1:pos:R:3:forces:R:3 energy=-24888.777102052663 stress="0.0 0.0 0.0 0.0 0.0 0.0 0.0 0.0 0.0" pbc="F F F"
C          3.67780       -2.61620        0.44430
H          4.23030       -2.79280        1.36320
C          2.50890       -1.86320        0.47440
H          2.13430       -1.43220        1.39870
C          1.80680       -1.65590       -0.70760
S          0.29810       -0.71710       -0.67500
N         -0.91150       -1.86530       -0.68790
C         -1.11050       -2.59210       -1.93380
H         -1.12250       -1.88070       -2.76120
H         -0.34050       -3.35560       -2.11810
H         -2.08690       -3.08200       -1.88660
C         -1.06080       -2.64600        0.53320
H         -1.08260       -1.96480        1.38490
H         -2.01880       -3.17060        0.48630
H         -0.25600       -3.38260        0.67430
C          2.27430       -2.15030       -1.92110
H          1.73730       -1.93050       -2.84080
C          3.44360       -2.90210       -1.94100
H          3.81200       -3.29860       -2.88250
C          4.14300       -3.13980       -0.75990
H          5.05690       -3.72840       -0.77930
O          0.22600       -0.04040        0.60860
O          0.20210        0.00860       -1.93080
