10
Properties=species:S:1:pos:R:3:forces:R:3 energy=-6263.457668571229 stress="0.0 0.0 0.0 0.0 0.0 0.0 0.0 0.0 0.0" pbc="F F F"
O         -0.72260       -2.55670        1.01250
H         -0.35840       -2.27200        0.16460
C          0.22090       -3.41970        1.58060
H         -0.26400       -3.86980        2.45650
H          1.10980       -2.85180        1.90340
O          0.65540       -4.39020        0.66550
C          0.20960       -5.69930        0.95420
H          0.57960       -6.34380        0.15430
H         -0.88780       -5.75030        0.97950
H          0.59890       -6.06260        1.91670
