16
Properties=species:S:1:pos:R:3:forces:R:3 energy=-11813.257707665058 stress="0.0 0.0 0.0 0.0 0.0 0.0 0.0 0.0 0.0" pbc="F F F"
C         13.17860       -9.86350       -1.05040
N         13.45020      -10.78850       -0.05380
H         12.66920      -11.34630        0.26580
N         14.81120      -12.77680       -0.06390
C         16.17550      -12.97800       -0.02890
H         16.59590      -13.97460       -0.04980
C         16.84340      -11.79120        0.02620
H         17.89680      -11.55130        0.06760
N         15.85940      -10.82120        0.04910
H         15.96770       -9.84310       -0.17500
C         14.67340      -11.47960       -0.00410
O         14.06790       -9.30290       -1.65990
C         11.70660       -9.56950       -1.25780
H         11.20970       -9.35880       -0.30530
H         11.61950       -8.70480       -1.91530
H         11.19860      -10.42190       -1.72270
