16
Properties=species:S:1:pos:R:3:forces:R:3 energy=-9433.40417505429 stress="0.0 0.0 0.0 0.0 0.0 0.0 0.0 0.0 0.0" pbc="F F F"
C         -2.12600       -0.97050       -2.10290
H         -2.66060       -1.80050       -2.55890
C         -2.82470        0.01510       -1.41510
H         -3.90670       -0.03810       -1.32870
C         -2.12410        1.07060       -0.83500
H         -2.65890        1.84540       -0.29110
C         -0.74140        1.14090       -0.93970
H         -0.17380        1.94800       -0.48500
C         -0.04820        0.15660       -1.64440
C         -0.73990       -0.90690       -2.22180
H         -0.19850       -1.68390       -2.75480
O          1.31880        0.24080       -1.65100
C          1.95740        0.05330       -2.89970
H          2.99560        0.36070       -2.75880
H          1.94240       -0.99830       -3.21640
H          1.49620        0.66860       -3.68240
