19
Properties=species:S:1:pos:R:3:forces:R:3 energy=-12439.595350005968 stress="0.0 0.0 0.0 0.0 0.0 0.0 0.0 0.0 0.0" pbc="F F F"
C         21.33150      -34.81960        0.02260
H         21.88990      -33.88740        0.03820
C         19.94380      -34.82640        0.02240
H         19.38770      -33.89290        0.03420
C         19.27990      -36.04740        0.00100
H         18.19570      -36.10450       -0.00540
C         20.04570      -37.20950       -0.01110
H         19.56500      -38.18680       -0.02490
N         21.37710      -37.22070        0.00340
C         22.01310      -36.03950        0.01460
C         24.40190      -35.29940       -0.72040
H         24.18300      -34.39530       -1.27400
C         25.67460      -35.90080       -0.53700
H         26.62390      -35.54360       -0.91230
C         25.48280      -37.04250        0.20610
H         26.18760      -37.78440        0.55540
N         24.15120      -37.14620        0.48050
H         23.66730      -37.93670        0.87960
C         23.48030      -36.07660       -0.05050
