14
Properties=species:S:1:pos:R:3:forces:R:3 energy=-4310.407482752744 stress="0.0 0.0 0.0 0.0 0.0 0.0 0.0 0.0 0.0" pbc="F F F"
C          0.12160        0.17320        0.15860
H          0.96160        0.12830       -0.54220
H         -0.68210        0.73660       -0.32700
C         -0.35850       -1.22690        0.54540
H         -0.69980       -1.72160       -0.37330
C          0.69370       -2.12770        1.23610
H          0.50700       -2.12470        2.31800
H          0.55120       -3.16570        0.91260
C          2.15330       -1.72160        1.02370
H          2.34730       -0.71380        1.40500
H          2.82540       -2.40750        1.55000
H          2.43210       -1.73630       -0.03710
H         -1.24440       -1.14650        1.18670
H          0.44690        0.75050        1.03270
