14
Properties=species:S:1:pos:R:3:forces:R:3 energy=-12410.70327557138 stress="0.0 0.0 0.0 0.0 0.0 0.0 0.0 0.0 0.0" pbc="F F F"
C         -0.14190       -0.00020        0.15320
H          0.02610       -0.54430        1.08910
H          0.20250       -0.63860       -0.66620
C          0.60760        1.33180        0.18620
H          0.40500        1.88260       -0.74000
H          0.21260        1.94060        1.00640
C          2.10980        1.13310        0.35820
H          2.52340        0.53930       -0.46500
H          2.33270        0.60780        1.29400
H          2.64030        2.09030        0.37850
C         -1.63730        0.15360        0.00510
F         -2.27860       -0.96980        0.38510
F         -2.12640        1.16330        0.74950
F         -1.98980        0.38460       -1.27530
