19
Properties=species:S:1:pos:R:3:forces:R:3 energy=-11977.033459207472 stress="0.0 0.0 0.0 0.0 0.0 0.0 0.0 0.0 0.0" pbc="F F F"
C         -0.15390        0.11230       -1.59180
N         -1.50070        0.19800       -1.18160
H         -1.66810        0.80870       -0.39630
C          0.81620        0.68210       -0.76100
H          0.51970        1.14800        0.17670
C          2.15650        0.64910       -1.12270
H          2.90030        1.09170       -0.46480
C          2.54380        0.05740       -2.32160
H          3.59090        0.03110       -2.61010
C          1.57370       -0.50070       -3.14810
H          1.86400       -0.96740       -4.08670
C          0.22790       -0.48050       -2.79710
H         -0.52410       -0.92470       -3.43660
C         -2.56790       -0.55180       -1.61860
C         -3.85850       -0.24930       -0.87800
H         -3.76350       -0.48380        0.18790
H         -4.12330        0.80950       -0.96840
H         -4.65360       -0.85740       -1.30810
O         -2.49440       -1.37470       -2.51120
