16
Properties=species:S:1:pos:R:3:forces:R:3 energy=-10906.758686658975 stress="0.0 0.0 0.0 0.0 0.0 0.0 0.0 0.0 0.0" pbc="F F F"
C          7.54310      -21.30790        0.17360
H          6.63940      -20.71230        0.26360
C          7.51620      -22.69060        0.30320
H          6.58380      -23.21350        0.49840
C          8.70670      -23.39340        0.17020
H          8.73660      -24.47520        0.26230
C          9.87940      -22.68030       -0.07040
N          9.91900      -21.35050       -0.19610
C          8.76760      -20.69260       -0.07880
H          8.83140      -19.61170       -0.18940
C         11.19820      -23.40910       -0.23640
O         12.19330      -23.03800        0.34160
C         11.20600      -24.58610       -1.19130
H         10.81660      -24.29120       -2.17230
H         10.56680      -25.39710       -0.82300
H         12.22940      -24.95440       -1.28800
