19
Properties=species:S:1:pos:R:3:forces:R:3 energy=-11976.931192340922 stress="0.0 0.0 0.0 0.0 0.0 0.0 0.0 0.0 0.0" pbc="F F F"
C         -0.12990        0.09870       -1.56490
N         -1.49510        0.13280       -1.16620
H         -1.74450       -0.28360       -0.27740
C          0.85730        0.58250       -0.70420
H          0.57220        0.98560        0.26510
C          2.19250        0.56290       -1.09340
H          2.95150        0.94950       -0.41760
C          2.55730        0.04830       -2.33450
H          3.60150        0.03110       -2.63560
C          1.57460       -0.44810       -3.18490
H          1.84730       -0.85640       -4.15460
C          0.23650       -0.42380       -2.80550
H         -0.53500       -0.81470       -3.46460
C         -2.50300        0.92630       -1.67540
C         -2.18430        1.75400       -2.90120
H         -2.97910        2.48880       -3.02950
H         -1.21350        2.25190       -2.81890
H         -2.14870        1.11840       -3.79300
O         -3.59950        0.93420       -1.14590
