14
Properties=species:S:1:pos:R:3:forces:R:3 energy=-31478.076092373893 stress="0.0 0.0 0.0 0.0 0.0 0.0 0.0 0.0 0.0" pbc="F F F"
C          2.00220      -24.67890       -0.90910
H          0.95710      -24.74340       -1.17910
C          2.80970      -25.65980       -0.43350
H          2.50520      -26.68230       -0.25170
N          4.10420      -25.29830       -0.16990
C          4.29090      -24.05280       -0.44800
S          2.88580      -23.21070       -1.04620
S          5.89570      -23.28140       -0.13930
C          6.13640      -22.22720       -1.55620
H          5.41390      -21.41090       -1.52710
H          7.15240      -21.83850       -1.46720
H          6.03950      -22.82890       -2.46110
O          5.76780      -22.41590        1.02660
O          6.89960      -24.33090       -0.19940
