16
Properties=species:S:1:pos:R:3:forces:R:3 energy=-20705.166811374318 stress="0.0 0.0 0.0 0.0 0.0 0.0 0.0 0.0 0.0" pbc="F F F"
C         28.76040       -4.25550       -1.09300
N         29.45460       -4.70830        0.01910
H         28.93330       -4.62800        0.88500
C         31.06620       -6.59480        0.08810
H         30.31320       -7.37210        0.14480
C         32.47080       -6.82880        0.04480
H         32.91980       -7.81690        0.06820
C         33.19050       -5.67610       -0.02410
H         34.26570       -5.55920       -0.06550
S         32.18190       -4.28130       -0.02900
C         30.74170       -5.27030        0.02760
O         27.65080       -3.78200       -0.95640
C         29.45600       -4.36990       -2.42750
H         30.10910       -5.24540       -2.48520
H         30.07250       -3.47870       -2.58810
H         28.69620       -4.40420       -3.21010
