10
Properties=species:S:1:pos:R:3:forces:R:3 energy=-6263.463399410961 stress="0.0 0.0 0.0 0.0 0.0 0.0 0.0 0.0 0.0" pbc="F F F"
O          0.09380       -2.06690        1.25200
H         -0.70600       -2.14580        0.71480
C          0.34690       -3.35990        1.76120
H         -0.47800       -3.69090        2.40900
H          1.23920       -3.28110        2.38770
C          0.58100       -4.38230        0.62100
H          0.07140       -5.32290        0.84580
H          1.65300       -4.60760        0.52290
O          0.05410       -3.91870       -0.60490
H          0.52360       -3.09690       -0.80100
