14
Properties=species:S:1:pos:R:3:forces:R:3 energy=-7010.003733129783 stress="0.0 0.0 0.0 0.0 0.0 0.0 0.0 0.0 0.0" pbc="F F F"
C          0.03130       -0.02940       -0.01700
H          0.03650       -0.67010        0.87400
H          0.03750       -0.69710       -0.88570
C         -1.24080        0.81800       -0.00740
H         -1.22220        1.48770        0.86310
H         -1.24670        1.46690       -0.89400
C         -2.50880       -0.02910        0.02190
H         -2.53350       -0.66740        0.91290
H         -3.40890        0.59410        0.03140
H         -2.56380       -0.68400       -0.85560
C          1.32100        0.79090       -0.06380
H          1.12600        1.85930        0.09440
H          2.03530        0.46000        0.69860
F          1.94120        0.64770       -1.29870
