19
Properties=species:S:1:pos:R:3:forces:R:3 energy=-12439.431216766345 stress="0.0 0.0 0.0 0.0 0.0 0.0 0.0 0.0 0.0" pbc="F F F"
C         21.30580      -34.79510        0.02480
H         21.83720      -33.84740        0.04710
C         19.91800      -34.83190        0.02850
H         19.34350      -33.90950        0.04320
C         19.28180      -36.06710        0.00570
H         18.19900      -36.14950        0.00200
C         20.07540      -37.20910       -0.00920
H         19.62020      -38.19740       -0.02550
N         21.40670      -37.19150       -0.00070
C         22.01530      -36.00050        0.01190
C         24.36290      -36.73330        0.77680
H         24.07190      -37.48930        1.49380
C         25.67690      -36.30850        0.44690
H         26.60210      -36.67240        0.87370
C         25.56270      -35.34350       -0.52440
H         26.31690      -34.77100       -1.04610
N         24.23020      -35.16150       -0.78040
H         23.84890      -34.56270       -1.49540
C         23.48760      -36.02390       -0.00970
