18
Properties=species:S:1:pos:R:3:forces:R:3 energy=-6416.0311065662045 stress="0.0 0.0 0.0 0.0 0.0 0.0 0.0 0.0 0.0" pbc="F F F"
C          4.53450        0.22510       -1.53790
H          5.59210        0.26800       -1.25900
H          4.06820        1.16770       -1.22790
C          3.85470       -0.97580       -0.88440
H          4.01810       -0.95750        0.20130
H          4.35540       -1.88580       -1.25230
C          2.36570       -1.11040       -1.15320
C          1.88040       -0.66760       -2.51310
H          2.03090        0.40910       -2.65060
H          0.82090       -0.87500       -2.67420
H          2.44140       -1.17520       -3.30820
C          1.59160       -1.68410       -0.22910
H          2.06000       -1.95110        0.72190
C          0.12980       -2.00560       -0.31760
H         -0.42730       -1.49610        0.47780
H         -0.03910       -3.08060       -0.17990
H          4.48130        0.16670       -2.62980
H         -0.31610       -1.71950       -1.27210
