18
Properties=species:S:1:pos:R:3:forces:R:3 energy=-12979.989316055879 stress="0.0 0.0 0.0 0.0 0.0 0.0 0.0 0.0 0.0" pbc="F F F"
C          4.48300      -20.73730       -0.00680
H          5.03560      -19.80150        0.00020
C          3.09310      -20.73460       -0.00930
H          2.55340      -19.79070       -0.01380
C          2.39370      -21.93930        0.00160
H          1.30650      -21.93610        0.00340
C          3.08540      -23.14770        0.01310
H          2.53930      -24.08730        0.02430
C          4.47610      -23.15300        0.00690
H          5.02950      -24.08860        0.00350
C          5.17970      -21.94840       -0.01510
N          7.45680      -22.66120       -0.72800
C          8.72200      -22.24140       -0.34820
H          9.61490      -22.64990       -0.79980
C          8.60860      -21.30210        0.61420
H          9.29640      -20.71020        1.19710
O          7.27930      -21.10700        0.84960
C          6.65120      -21.97090        0.01570
