15
Properties=species:S:1:pos:R:3:forces:R:3 energy=-7830.495391362139 stress="0.0 0.0 0.0 0.0 0.0 0.0 0.0 0.0 0.0" pbc="F F F"
C          2.45850       -1.14600        1.39750
H          3.53720       -0.96100        1.37150
H          1.95130       -0.18390        1.25810
H          2.20110       -1.53200        2.38860
C          2.05320       -2.13550        0.31480
H          2.33320       -1.75340       -0.67750
H          2.55690       -3.09550        0.44280
N          0.63080       -2.41650        0.36840
H         -0.00680       -1.63560        0.39680
C          0.12610       -3.67040        0.17450
C         -1.38900       -3.74460        0.16180
H         -1.68750       -4.68110       -0.31000
H         -1.77170       -3.73790        1.18860
H         -1.84290       -2.90430       -0.37450
O          0.83870       -4.65310        0.05130
