18
Properties=species:S:1:pos:R:3:forces:R:3 energy=-8899.568201432568 stress="0.0 0.0 0.0 0.0 0.0 0.0 0.0 0.0 0.0" pbc="F F F"
C          3.00050       -3.22470       -0.32620
H          3.99810       -2.81020       -0.50630
H          3.07220       -3.99700        0.43930
H          2.64770       -3.69330       -1.24760
C          2.07950       -2.09580        0.10710
H          2.15090       -1.27610       -0.62310
H          2.44500       -1.67830        1.05980
N          0.65340       -2.40470        0.26130
C         -0.14480       -1.20360        0.43000
H         -1.17950       -1.43400        0.68040
H          0.26540       -0.59270        1.24410
H         -0.13390       -0.59020       -0.48210
C          0.12210       -3.67120        0.23430
C         -1.39460       -3.76690        0.20430
H         -1.83040       -3.45020        1.15840
H         -1.83220       -3.15950       -0.59320
H         -1.64820       -4.81430        0.04070
O          0.79400       -4.69250        0.24230
