18
Properties=species:S:1:pos:R:3:forces:R:3 energy=-10939.181688482677 stress="0.0 0.0 0.0 0.0 0.0 0.0 0.0 0.0 0.0" pbc="F F F"
C         -3.09390        1.27210       -2.30300
H         -4.14240        1.49370       -2.47980
C         -2.09110        2.15770       -2.67900
H         -2.33350        3.10070       -3.16400
C         -0.77020        1.81510       -2.42120
H          0.05270        2.46650       -2.70370
C         -0.50020        0.60160       -1.79100
N         -1.45840       -0.26610       -1.44450
C         -2.72290        0.07990       -1.69250
H         -3.48060       -0.64030       -1.38760
C          0.93220        0.17800       -1.53140
H          0.92050       -0.58510       -0.74100
H          1.53380        1.03070       -1.19440
O          1.58550       -0.30760       -2.68490
C          1.07750       -1.54250       -3.13470
H          1.73350       -1.88260       -3.94010
H          0.05160       -1.45100       -3.51720
H          1.07940       -2.29230       -2.32820
