17
Properties=species:S:1:pos:R:3:forces:R:3 energy=-22204.76356449565 stress="0.0 0.0 0.0 0.0 0.0 0.0 0.0 0.0 0.0" pbc="F F F"
C         30.11510      -21.08610       -0.02230
H         30.66260      -20.14830       -0.03890
C         28.72670      -21.09370       -0.00820
H         28.17430      -20.15850       -0.01740
C         28.06050      -22.31300        0.01690
H         26.97600      -22.36790        0.02750
C         28.82400      -23.47610        0.02950
H         28.34550      -24.45440        0.05050
N         30.15370      -23.48860        0.01950
C         30.78610      -22.31180       -0.00990
N         32.93800      -23.47250        0.16430
C         34.28430      -23.23270        0.08940
H         34.96740      -24.06000        0.23520
C         34.65060      -21.94810       -0.17000
H         35.64690      -21.54370       -0.27200
S         33.25120      -20.97000       -0.32770
C         32.26630      -22.38010       -0.03140
