21
Properties=species:S:1:pos:R:3:forces:R:3 energy=-13039.851452605708 stress="0.0 0.0 0.0 0.0 0.0 0.0 0.0 0.0 0.0" pbc="F F F"
C         21.82660      -22.01360        0.01460
H         22.37370      -22.95310        0.04450
C         20.43460      -22.00790        0.00050
H         19.89040      -22.94900        0.00370
C         19.74170      -20.80020       -0.00880
H         18.65450      -20.79630       -0.01700
C         20.44350      -19.59820       -0.00060
H         19.90610      -18.65340       -0.00080
C         21.83570      -19.60460        0.00610
H         22.38680      -18.66720        0.00890
C         22.53540      -20.81180       -0.00660
C         26.13840      -20.49820       -1.09090
H         26.72250      -20.28430       -1.98190
C         24.75100      -20.52090       -1.14250
H         24.21490      -20.31990       -2.06600
C         24.03180      -20.81200        0.01890
N         24.62200      -21.04270        1.19770
C         25.95520      -21.00920        1.23020
H         26.40310      -21.20460        2.20240
C         26.75950      -20.74820        0.12620
H         27.84090      -20.73990        0.22590
