19
Properties=species:S:1:pos:R:3:forces:R:3 energy=-12439.723130530312 stress="0.0 0.0 0.0 0.0 0.0 0.0 0.0 0.0 0.0" pbc="F F F"
C         21.32460      -34.80720        0.01060
H         21.86780      -33.86620        0.01770
C         19.93680      -34.83040        0.00080
H         19.37200      -33.90200       -0.00480
C         19.28370      -36.05760       -0.00280
H         18.20020      -36.12470       -0.01200
C         20.06080      -37.21210        0.00720
H         19.58960      -38.19430        0.00710
N         21.39110      -37.20750        0.02110
C         22.01870      -36.01970        0.01730
C         24.45860      -35.10650       -0.17160
H         24.29710      -34.04800       -0.33250
C         25.71190      -35.76820       -0.11310
H         26.69060      -35.31900       -0.21110
C         25.46140      -37.10610        0.09090
H         26.13760      -37.94370        0.19120
N         24.11270      -37.27340        0.15920
H         23.59190      -38.13150        0.25760
C         23.48330      -36.06750        0.00900
