18
Properties=species:S:1:pos:R:3:forces:R:3 energy=-12875.964637693167 stress="0.0 0.0 0.0 0.0 0.0 0.0 0.0 0.0 0.0" pbc="F F F"
C         13.93040      -15.05990       -0.02490
H         14.49700      -14.13330       -0.04240
C         12.54230      -15.05810       -0.04000
H         11.99130      -14.12200       -0.07480
C         11.87470      -16.27560       -0.01220
H         10.78970      -16.32890       -0.02410
C         12.63420      -17.44040        0.03060
H         12.15000      -18.41510        0.05150
N         13.96630      -17.46050        0.04890
C         14.60000      -16.28370        0.02790
N         16.86800      -16.48440        1.07460
C         18.14820      -16.35810        0.59160
H         19.00450      -16.46280        1.24500
C         18.13860      -16.09960       -0.75080
H         18.92430      -15.94230       -1.47570
N         16.80950      -16.06450       -1.09720
H         16.43380      -15.90220       -2.01860
C         16.08770      -16.30930        0.03450
