13
Properties=species:S:1:pos:R:3:forces:R:3 energy=-19635.24116366706 stress="0.0 0.0 0.0 0.0 0.0 0.0 0.0 0.0 0.0" pbc="F F F"
O         21.43170      -17.82640        1.04930
C         21.45010      -17.40090       -1.31530
H         21.54380      -18.24000       -2.01530
H         21.98800      -16.55260       -1.75240
H         20.39740      -17.14740       -1.17550
C         22.05380      -17.77520        0.01650
N         23.94610      -19.35180        0.02170
C         25.32100      -19.37530        0.00890
H         25.82730      -20.33200        0.00950
C         25.93330      -18.16030        0.00130
H         26.99220      -17.94070       -0.00750
S         24.75270      -16.91310        0.00930
C         23.52040      -18.12870        0.01320
