13
Properties=species:S:1:pos:R:3:forces:R:3 energy=-18603.30325689667 stress="0.0 0.0 0.0 0.0 0.0 0.0 0.0 0.0 0.0" pbc="F F F"
C         -1.10190       -1.39530       -0.64160
H         -0.76580       -0.78580        0.19920
H         -0.48610       -1.22060       -1.52600
H         -2.15050       -1.19130       -0.86510
S         -0.98980       -3.10700       -0.17150
O         -1.81870       -3.29730        1.00720
N          0.61760       -3.24220        0.29480
H          1.16740       -3.41910       -0.54170
O         -1.19040       -3.91200       -1.36760
C          0.88900       -4.24650        1.33510
H          0.26220       -4.02340        2.19970
H          0.70320       -5.27990        1.01260
H          1.93790       -4.13940        1.62010
