22
Properties=species:S:1:pos:R:3:forces:R:3 energy=-13509.222735821964 stress="0.0 0.0 0.0 0.0 0.0 0.0 0.0 0.0 0.0" pbc="F F F"
C         21.45250      -15.41560        0.91130
H         21.88320      -14.59440        1.47120
C         20.07700      -15.43210        0.71430
H         19.46760      -14.64900        1.15650
C         19.48450      -16.43830       -0.04250
H         18.40840      -16.45060       -0.19220
C         20.28400      -17.42160       -0.61620
H         19.83610      -18.20610       -1.22090
C         21.65860      -17.40300       -0.42420
H         22.29060      -18.16040       -0.87990
C         22.26110      -16.41890        0.36690
N         24.47720      -17.26230       -0.24520
C         25.76670      -17.04110        0.14410
H         26.59970      -17.55830       -0.31660
C         25.80460      -16.12400        1.15380
H         26.61670      -15.69770        1.72450
N         24.49970      -15.76290        1.39190
C         23.73090      -16.46610        0.49770
C         24.10410      -14.89360        2.48610
H         24.95040      -14.80080        3.16980
H         23.83800      -13.89130        2.13340
H         23.26370      -15.32610        3.03540
