17
Properties=species:S:1:pos:R:3:forces:R:3 energy=-12850.171535448322 stress="0.0 0.0 0.0 0.0 0.0 0.0 0.0 0.0 0.0" pbc="F F F"
C         15.74000      -21.96510       -0.01640
H         14.78740      -21.44450       -0.03050
C         15.80600      -23.35690       -0.02050
H         14.89800      -23.95410       -0.03440
C         17.04390      -23.97800        0.00610
H         17.15250      -25.05650        0.02310
C         18.17760      -23.16380        0.01230
N         18.13760      -21.83600        0.01920
C         16.93110      -21.25740        0.00600
H         16.93030      -20.16890        0.01080
N         19.47040      -23.73090        0.01160
H         20.16220      -23.03590       -0.24870
C         19.86680      -24.57360        1.05880
N         21.23510      -24.76350        1.09670
H         21.51040      -25.50080        1.72940
H         21.73920      -24.74980        0.22150
O         19.10070      -25.07240        1.85710
