16
Properties=species:S:1:pos:R:3:forces:R:3 energy=-9433.43191266024 stress="0.0 0.0 0.0 0.0 0.0 0.0 0.0 0.0 0.0" pbc="F F F"
C         -2.12700       -0.96120       -2.11680
H         -2.66420       -1.77940       -2.59110
C         -2.82600        0.03550       -1.44710
H         -3.91090        0.00510       -1.39430
C         -2.12110        1.07620       -0.84510
H         -2.65650        1.86430       -0.32130
C         -0.73590        1.12150       -0.91240
H         -0.16760        1.93080       -0.46260
C         -0.03900        0.10880       -1.57400
C         -0.73590       -0.93190       -2.18640
H         -0.19910       -1.71890       -2.70880
O          1.31630        0.25860       -1.66560
C          2.09890       -0.91680       -1.59420
H          3.12460       -0.58900       -1.41410
H          1.77230       -1.56840       -0.77400
H          2.06910       -1.48380       -2.53440
