19
Properties=species:S:1:pos:R:3:forces:R:3 energy=-21331.95504633869 stress="0.0 0.0 0.0 0.0 0.0 0.0 0.0 0.0 0.0" pbc="F F F"
C         21.77040      -10.93960        0.04230
H         22.28760      -11.89550        0.07420
C         20.38060      -10.92300        0.03140
H         19.83660      -11.86330        0.06060
C         19.68750       -9.71660       -0.01650
H         18.60080       -9.70980       -0.02450
C         20.39640       -8.52020       -0.05350
H         19.86790       -7.57110       -0.09030
C         21.78630       -8.53290       -0.04420
H         22.32170       -7.58750       -0.06110
C         22.49510       -9.73870        0.00430
C         24.82110       -8.67970       -0.22090
H         24.47790       -7.68440       -0.47900
C         26.19870       -9.03080       -0.11430
H         27.01630       -8.33340       -0.26030
C         26.37840      -10.34500        0.19290
H         27.31100      -10.87460        0.33420
S         24.87980      -11.16840        0.34940
C         23.97330       -9.73000        0.00560
