22
Properties=species:S:1:pos:R:3:forces:R:3 energy=-13509.1614286483 stress="0.0 0.0 0.0 0.0 0.0 0.0 0.0 0.0 0.0" pbc="F F F"
C         21.47030      -15.38000        0.86500
H         21.95400      -14.57560        1.41400
C         20.08810      -15.40340        0.71240
H         19.48430      -14.60900        1.14390
C         19.48210      -16.44080        0.00980
H         18.40130      -16.45850       -0.10980
C         20.26030      -17.45690       -0.53680
H         19.79100      -18.27080       -1.08380
C         21.64270      -17.43420       -0.38440
H         22.26120      -18.22240       -0.80730
C         22.25760      -16.39170        0.31180
N         24.40160      -16.90880        1.46570
C         25.72330      -16.65390        1.19220
H         26.50940      -16.98920        1.85600
C         25.84570      -15.95860        0.02310
H         26.69990      -15.57960       -0.52030
N         24.56240      -15.77510       -0.43840
C         23.73220      -16.36770        0.47350
C         24.18870      -15.11110       -1.67440
H         24.68800      -14.14000       -1.73540
H         24.46730      -15.71750       -2.54280
H         23.11000      -14.95160       -1.68480
