18
Properties=species:S:1:pos:R:3:forces:R:3 energy=-10939.124514693647 stress="0.0 0.0 0.0 0.0 0.0 0.0 0.0 0.0 0.0" pbc="F F F"
C         -3.09270        1.24980       -2.37260
H         -4.13460        1.46360       -2.59060
C         -2.08130        2.14360       -2.70860
H         -2.31230        3.08540       -3.20110
C         -0.76960        1.80830       -2.40530
H          0.05560        2.47100       -2.65560
C         -0.51240        0.58820       -1.77330
N         -1.47750       -0.26710       -1.43660
C         -2.73510        0.06430       -1.74310
H         -3.49660       -0.66060       -1.46010
C          0.93140        0.19830       -1.48860
H          1.45410        1.06820       -1.05280
H          1.42930       -0.02090       -2.44200
O          1.09660       -0.93970       -0.69680
C          0.89810       -0.71050        0.67890
H          1.09780       -1.65820        1.18510
H         -0.13120       -0.39740        0.89590
H          1.59250        0.05270        1.06520
