19
Properties=species:S:1:pos:R:3:forces:R:3 energy=-11977.038025629436 stress="0.0 0.0 0.0 0.0 0.0 0.0 0.0 0.0 0.0" pbc="F F F"
C         -0.14640        0.06100       -1.56520
N         -1.48040        0.06340       -1.10880
H         -1.59300        0.28250       -0.13060
C          0.84440        0.47300       -0.66760
H          0.56800        0.79050        0.33600
C          2.17870        0.48440       -1.05140
H          2.93740        0.80930       -0.34370
C          2.54200        0.08060       -2.33290
H          3.58460        0.08650       -2.63810
C          1.55310       -0.33140       -3.22050
H          1.82380       -0.64800       -4.22530
C          0.21180       -0.34620       -2.85220
H         -0.55700       -0.66170       -3.54540
C         -2.63410       -0.12610       -1.83240
C         -3.89390       -0.00340       -0.99330
H         -3.98310        1.00150       -0.56630
H         -3.88740       -0.72180       -0.16670
H         -4.75440       -0.19790       -1.63240
O         -2.65610       -0.36770       -3.02460
