22
Properties=species:S:1:pos:R:3:forces:R:3 energy=-13509.260995812077 stress="0.0 0.0 0.0 0.0 0.0 0.0 0.0 0.0 0.0" pbc="F F F"
C         21.47450      -15.38890        0.85200
H         21.93960      -14.58980        1.42340
C         20.09280      -15.41210        0.70190
H         19.49290      -14.61770        1.13620
C         19.48470      -16.44450       -0.00620
H         18.40520      -16.46020       -0.13000
C         20.26520      -17.46420       -0.54490
H         19.79510      -18.28030       -1.08750
C         21.64520      -17.44770       -0.38470
H         22.25850      -18.25310       -0.78110
C         22.26670      -16.39730        0.29330
N         24.44660      -17.49340        0.67650
C         25.74190      -17.06460        0.79270
H         26.54750      -17.75270        1.01380
C         25.81840      -15.71720        0.58460
H         26.64470      -15.02120        0.57940
N         24.53120      -15.29970        0.33970
C         23.73690      -16.41130        0.42770
C         24.16270      -13.94870       -0.03900
H         24.96650      -13.51710       -0.64030
H         23.25420      -13.97290       -0.64440
H         24.00060      -13.30950        0.83630
