10
Properties=species:S:1:pos:R:3:forces:R:3 energy=-6263.580047892288 stress="0.0 0.0 0.0 0.0 0.0 0.0 0.0 0.0 0.0" pbc="F F F"
O         -1.10360       -3.02780        1.34050
H         -1.15190       -2.69240        0.43590
C          0.21780       -3.43460        1.57210
H          0.23890       -3.82900        2.59670
H          0.90700       -2.58210        1.48730
O          0.65960       -4.39060        0.65290
C          0.20520       -5.69430        0.96430
H          0.57350       -6.35630        0.17830
H         -0.89070       -5.73690        0.99520
H          0.59730       -6.03430        1.93490
