15
Properties=species:S:1:pos:R:3:forces:R:3 energy=-21141.735707439002 stress="0.0 0.0 0.0 0.0 0.0 0.0 0.0 0.0 0.0" pbc="F F F"
C         28.52010      -16.70880       -1.13530
N         29.34630      -16.81770       -0.02150
H         28.85690      -16.69090        0.85830
N         30.74780      -18.74640        0.09110
C         32.08470      -19.06610        0.08500
H         32.37380      -20.10950        0.15610
C         32.94760      -18.02690       -0.00820
H         34.02820      -18.05090       -0.02990
S         32.07390      -16.54810       -0.08800
C         30.59430      -17.46190       -0.00110
O         27.37920      -16.32280       -0.99700
C         29.12930      -17.06410       -2.47130
H         30.00840      -16.44610       -2.67640
H         28.37310      -16.88840       -3.23760
H         29.44470      -18.11190       -2.50130
