20
Properties=species:S:1:pos:R:3:forces:R:3 energy=-13476.286231332231 stress="0.0 0.0 0.0 0.0 0.0 0.0 0.0 0.0 0.0" pbc="F F F"
C         21.68680      -26.60080        0.00120
H         22.24160      -27.53690       -0.01280
C         20.29490      -26.60730        0.01340
H         19.75760      -27.55220        0.02430
C         19.59290      -25.40520        0.00530
H         18.50590      -25.41030        0.00920
C         20.28330      -24.19610       -0.00180
H         19.73680      -23.25640        0.00190
C         21.67510      -24.18820        0.00150
H         22.21930      -23.24620        0.02880
C         22.38210      -25.39140       -0.02560
C         25.84310      -25.80910       -1.02930
H         26.35530      -26.18130       -1.91440
N         24.51230      -25.84260       -1.06760
C         23.87550      -25.39060        0.01920
N         24.45170      -24.88130        1.11410
C         25.78340      -24.87760        1.13350
H         26.24670      -24.48130        2.03510
C         26.54800      -25.33610        0.06930
H         27.63210      -25.32040        0.09250
