14
Properties=species:S:1:pos:R:3:forces:R:3 energy=-7010.083865780512 stress="0.0 0.0 0.0 0.0 0.0 0.0 0.0 0.0 0.0" pbc="F F F"
C          0.02790       -0.03640        0.01720
H          0.03490       -0.72250        0.87450
H          0.01750       -0.66720       -0.88210
C         -1.23880        0.82070        0.01890
H         -1.23910        1.47020        0.90420
H         -1.21560        1.48520       -0.85100
C         -2.50690       -0.02780       -0.00050
H         -2.55170       -0.68730        0.87440
H         -3.40560        0.59700        0.00450
H         -2.54230       -0.66020       -0.89530
C          1.31650        0.78060        0.04240
H          1.61530        0.99950        1.07440
H          2.14020        0.25550       -0.45490
F          1.13790        2.00540       -0.58910
