18
Properties=species:S:1:pos:R:3:forces:R:3 energy=-12876.044278986765 stress="0.0 0.0 0.0 0.0 0.0 0.0 0.0 0.0 0.0" pbc="F F F"
C         13.89800      -15.02130        0.00360
H         14.41400      -14.06480       -0.01600
C         12.51060      -15.05990       -0.02000
H         11.93610      -14.13720       -0.03290
C         11.87360      -16.29480       -0.02440
H         10.79110      -16.37690       -0.03940
C         12.66780      -17.43810       -0.01490
H         12.21490      -18.42820       -0.02380
N         13.99740      -17.41790        0.00070
C         14.60500      -16.22830        0.02300
N         16.84660      -17.26010       -0.29850
C         18.13090      -16.82240       -0.12090
H         18.97460      -17.46270       -0.34210
C         18.14800      -15.53940        0.35300
H         18.95290      -14.86810        0.61360
N         16.82770      -15.17920        0.45420
H         16.47940      -14.32930        0.86800
C         16.08030      -16.25380        0.05490
