17
Properties=species:S:1:pos:R:3:forces:R:3 energy=-12850.101291597724 stress="0.0 0.0 0.0 0.0 0.0 0.0 0.0 0.0 0.0" pbc="F F F"
C         15.70330      -21.96950       -0.05860
H         14.75020      -21.45290       -0.10330
C         15.78000      -23.36020       -0.01450
H         14.87850      -23.96760       -0.02410
C         17.02360      -23.96680        0.02950
H         17.11890      -25.04950        0.05840
C         18.16380      -23.15110        0.05110
N         18.10470      -21.82250        0.02500
C         16.89280      -21.25820       -0.04300
H         16.88280      -20.17050       -0.07260
N         19.45030      -23.72880       -0.00160
H         19.48030      -24.62470       -0.47430
C         20.30710      -23.83880        1.11450
N         20.30220      -22.77020        1.96000
H         21.03740      -22.76650        2.65040
H         19.93590      -21.88030        1.65240
O         21.00480      -24.82620        1.25230
