22
Properties=species:S:1:pos:R:3:forces:R:3 energy=-13046.101325393303 stress="0.0 0.0 0.0 0.0 0.0 0.0 0.0 0.0 0.0" pbc="F F F"
C          4.00580       -2.05710       -1.70090
H          5.03220       -1.95840       -2.04390
C          3.25250       -0.91640       -1.44210
H          3.67950        0.07370       -1.58100
C          1.93730       -1.03970       -0.99470
C          1.11570        0.19470       -0.72230
C          1.37420       -2.30380       -0.82060
H          0.34620       -2.38910       -0.47680
C          2.13160       -3.44110       -1.08110
H          1.69260       -4.42520       -0.94000
C          3.44770       -3.31980       -1.51960
H          4.03820       -4.21010       -1.72210
N          1.16320        0.68330        0.55680
C          0.35780        1.84490        0.87730
H         -0.09150        2.21420       -0.04390
H          0.98090        2.62960        1.32360
H         -0.43610        1.58840        1.59120
C          1.86810        0.06060        1.65940
H          2.53760       -0.71920        1.29970
H          1.16650       -0.38180        2.37990
H          2.46810        0.81340        2.18430
O          0.45950        0.72530       -1.60560
