11
Properties=species:S:1:pos:R:3:forces:R:3 energy=-5940.563457451302 stress="0.0 0.0 0.0 0.0 0.0 0.0 0.0 0.0 0.0" pbc="F F F"
F         13.26020      -26.48760       -0.00340
C         14.39650      -25.68900       -0.00060
H         14.35300      -25.02790       -0.87390
H         14.34550      -25.07290        0.90490
C         15.66090      -26.54530        0.00280
H         15.97380      -26.73100       -1.03190
H         16.46770      -25.96670        0.46890
C         15.46530      -27.88590        0.70630
H         14.69100      -28.47030        0.20390
H         15.15650      -27.74960        1.74840
H         16.39230      -28.46770        0.70300
