15
Properties=species:S:1:pos:R:3:forces:R:3 energy=-7830.491384020793 stress="0.0 0.0 0.0 0.0 0.0 0.0 0.0 0.0 0.0" pbc="F F F"
C          2.52680       -0.96200       -0.24270
H          3.59210       -0.78050       -0.06860
H          1.98200       -0.05760        0.05290
H          2.37820       -1.12080       -1.31540
C          2.04690       -2.16800        0.55000
H          2.23070       -2.02250        1.62430
H          2.57930       -3.07550        0.25830
N          0.63910       -2.41950        0.30210
H          0.01130       -1.62990        0.29890
C          0.11500       -3.67870        0.36200
C         -1.39250       -3.74440        0.20920
H         -1.73720       -4.71280        0.57260
H         -1.66520       -3.65450       -0.84820
H         -1.90280       -2.94600        0.75880
O          0.81380       -4.66990        0.49500
