14
Properties=species:S:1:pos:R:3:forces:R:3 energy=-10306.509354397827 stress="0.0 0.0 0.0 0.0 0.0 0.0 0.0 0.0 0.0" pbc="F F F"
O          5.39070      -10.72630        1.38270
C          4.80940      -11.30910       -0.87190
H          4.77250      -12.34450       -1.23140
H          3.80880      -10.96620       -0.60150
H          5.21390      -10.69800       -1.68720
C          5.71770      -11.22490        0.32950
N          7.53640      -12.95320        0.12390
C          8.90290      -12.88090       -0.01160
H          9.51060      -13.77550       -0.04860
C          9.31410      -11.57720       -0.07370
H         10.28830      -11.12050       -0.17380
N          8.16370      -10.83270        0.02350
H          8.09930       -9.82680        0.06740
C          7.12740      -11.71030        0.12230
