21
Properties=species:S:1:pos:R:3:forces:R:3 energy=-13039.89372029434 stress="0.0 0.0 0.0 0.0 0.0 0.0 0.0 0.0 0.0" pbc="F F F"
C         21.82720      -22.01200        0.01160
H         22.37610      -22.95080        0.03930
C         20.43550      -22.00690       -0.00570
H         19.89180      -22.94830       -0.00750
C         19.74130      -20.79970       -0.00870
H         18.65420      -20.79710       -0.01740
C         20.44200      -19.59700        0.00670
H         19.90390      -18.65280        0.01140
C         21.83370      -19.60270        0.01140
H         22.38280      -18.66370        0.01810
C         22.53530      -20.80980       -0.00630
C         26.13920      -20.29000       -1.00130
H         26.72530      -19.91730       -1.83700
C         24.75250      -20.31190       -1.06400
H         24.22040      -19.95490       -1.94210
C         24.03010      -20.81030        0.02300
N         24.61930      -21.24680        1.14260
C         25.95170      -21.20590        1.19130
H         26.39650      -21.56830        2.11590
C         26.75820      -20.74560        0.15600
H         27.83900      -20.74540        0.26130
