15
Properties=species:S:1:pos:R:3:forces:R:3 energy=-7830.492774914484 stress="0.0 0.0 0.0 0.0 0.0 0.0 0.0 0.0 0.0" pbc="F F F"
C          2.52270       -1.96640        1.91640
H          3.61100       -1.84470        1.94600
H          2.07190       -1.07900        2.37530
H          2.26110       -2.83740        2.52590
C          2.04820       -2.15600        0.47720
H          2.29740       -1.27640       -0.12680
H          2.54140       -3.02160        0.03040
N          0.62370       -2.40730        0.36840
H         -0.01850       -1.63750        0.46900
C          0.12130       -3.66590        0.19870
C         -1.39340       -3.74590        0.16560
H         -1.68080       -4.63860       -0.39120
H         -1.78450       -3.83940        1.18510
H         -1.84900       -2.86360       -0.29590
O          0.83630       -4.64910        0.09310
