17
Properties=species:S:1:pos:R:3:forces:R:3 energy=-8893.047921588883 stress="0.0 0.0 0.0 0.0 0.0 0.0 0.0 0.0 0.0" pbc="F F F"
C          2.16060       -1.10930       -0.09890
H          2.83950       -1.11680        0.75050
C          2.43060       -1.89300       -1.21660
H          3.31850       -2.51860       -1.24740
C          1.54980       -1.86480       -2.29350
H          1.74610       -2.47080       -3.17490
C          0.41190       -1.06790       -2.25580
H         -0.27290       -1.05810       -3.10270
C          0.13570       -0.27980       -1.13200
C          1.02860       -0.30330       -0.05670
H          0.81440        0.30180        0.82150
N         -1.03490        0.50920       -1.06470
H         -1.64180        0.29940       -1.84720
C         -0.87210        1.94820       -0.91100
H         -0.34520        2.16820        0.02350
H         -0.31800        2.43030       -1.73330
H         -1.86390        2.40610       -0.83900
