14
Properties=species:S:1:pos:R:3:forces:R:3 energy=-10410.333268195087 stress="0.0 0.0 0.0 0.0 0.0 0.0 0.0 0.0 0.0" pbc="F F F"
O          3.76730       -5.00430        0.00060
C          4.58610       -2.75240       -0.00020
H          5.07690       -2.32200        0.87840
H          3.52690       -2.49280       -0.00010
H          5.07660       -2.32250       -0.87930
C          4.72440       -4.25400        0.00020
C          6.50640       -6.11450        0.00040
H          5.85960       -6.98250        0.00070
C          7.93250       -6.06610        0.00010
H          8.61610       -6.90400        0.00030
C          8.26370       -4.74880       -0.00030
H          9.20750       -4.22250       -0.00060
O          7.15590       -3.97410       -0.00030
C          6.08490       -4.81950        0.00010
