17
Properties=species:S:1:pos:R:3:forces:R:3 energy=-8893.02861830267 stress="0.0 0.0 0.0 0.0 0.0 0.0 0.0 0.0 0.0" pbc="F F F"
C          1.54820       -1.87510       -2.29140
H          1.74150       -2.49030       -3.16700
C          2.42960       -1.89590       -1.21510
H          3.31630       -2.52360       -1.24190
C          2.16100       -1.10560       -0.10160
H          2.83850       -1.11130        0.74890
C          1.03010       -0.29760       -0.06640
H          0.81160        0.31530        0.80540
C          0.14580       -0.26780       -1.14740
C          0.41060       -1.07630       -2.25870
H         -0.27530       -1.07560       -3.10460
N         -1.04040        0.50560       -1.06090
H         -1.68680        0.22240       -1.78740
C         -0.87760        1.95510       -1.06980
H         -0.27330        2.26640       -0.21030
H         -0.39890        2.34960       -1.98110
H         -1.86280        2.41980       -0.95950
