17
Properties=species:S:1:pos:R:3:forces:R:3 energy=-12850.01507519604 stress="0.0 0.0 0.0 0.0 0.0 0.0 0.0 0.0 0.0" pbc="F F F"
C         15.44060      -17.03640       -0.04760
H         14.49170      -16.51490       -0.08870
C         15.52810      -18.42350       -0.07180
H         14.63670      -19.04530       -0.13140
N         16.68540      -19.07500       -0.03060
C         17.78520      -18.31430        0.03470
N         17.82830      -16.98320        0.10220
C         16.64920      -16.36360        0.03860
H         16.68610      -15.27700        0.07210
N         18.98100      -19.03090        0.02550
H         18.82690      -20.00330       -0.22240
C         20.08190      -18.93390        0.88850
C         20.37950      -17.59630        1.51640
H         19.61030      -17.32910        2.24590
H         20.39270      -16.80120        0.76750
H         21.34610      -17.67640        2.01460
O         20.77470      -19.91600        1.05760
