13
Properties=species:S:1:pos:R:3:forces:R:3 energy=-18603.347279082413 stress="0.0 0.0 0.0 0.0 0.0 0.0 0.0 0.0 0.0" pbc="F F F"
C         -1.11570       -1.39340       -0.61110
H         -0.94160       -0.78130        0.27600
H         -2.12780       -1.23460       -0.98720
H         -0.37980       -1.17760       -1.38770
S         -0.98950       -3.11310       -0.16980
O         -1.78330       -3.31470        1.03320
N          0.62090       -3.26090        0.25780
H          0.67450       -3.25310        1.27150
O         -1.22550       -3.89500       -1.37280
C          1.37710       -4.36050       -0.35250
H          1.31260       -4.26450       -1.43730
H          1.01910       -5.35640       -0.06140
H          2.41920       -4.24530       -0.04690
