19
Properties=species:S:1:pos:R:3:forces:R:3 energy=-12439.80787342309 stress="0.0 0.0 0.0 0.0 0.0 0.0 0.0 0.0 0.0" pbc="F F F"
C          5.60920      -15.08300        0.01960
H          6.15330      -14.14070        0.04030
C          4.21930      -15.08600        0.03600
H          3.67710      -14.14420        0.05980
C          3.52380      -16.29260        0.01870
H          2.43690      -16.29520        0.02700
C          4.22380      -17.49630       -0.00070
H          3.68430      -18.43990       -0.00360
C          5.61380      -17.49440       -0.00760
H          6.17300      -18.42650        0.00280
C          6.31570      -16.28800       -0.02170
N          8.56060      -17.05260        0.74280
C          9.84710      -16.73030        0.38870
H         10.69420      -17.20260        0.86810
C          9.85730      -15.79070       -0.60360
H         10.65580      -15.30230       -1.14220
N          8.53180      -15.52230       -0.85100
H          8.16450      -14.90190       -1.55540
C          7.79060      -16.29570       -0.00580
