18
Properties=species:S:1:pos:R:3:forces:R:3 energy=-8457.0161984541 stress="0.0 0.0 0.0 0.0 0.0 0.0 0.0 0.0 0.0" pbc="F F F"
C          5.51910      -23.17550       -0.03780
C          6.81830      -22.38990       -0.06160
H          7.09220      -22.18440       -1.10690
C          7.99780      -23.06030        0.63910
H          8.30270      -23.97990        0.12910
H          7.74650      -23.31620        1.67370
H          8.86460      -22.39180        0.65670
H          6.63700      -21.40860        0.39370
C          5.48760      -24.57200       -0.03940
H          6.41660      -25.13770       -0.03030
C          4.27770      -25.25940       -0.04880
H          4.27960      -26.34710       -0.04850
C          3.07310      -24.56450       -0.05720
H          2.12890      -25.10310       -0.06420
C          3.08880      -23.17320       -0.05700
H          2.15420      -22.61640       -0.06310
C          4.30100      -22.49120       -0.04800
H          4.30420      -21.40220       -0.04800
