11
Properties=species:S:1:pos:R:3:forces:R:3 energy=-7301.331224599404 stress="0.0 0.0 0.0 0.0 0.0 0.0 0.0 0.0 0.0" pbc="F F F"
C          0.51710       -2.04660        0.90340
H         -0.00440       -1.38800        1.59810
H          0.16370       -1.88430       -0.11870
O          0.21980       -3.37530        1.33460
C          0.76140       -4.35140        0.57960
H          1.59430       -1.86390        0.93600
C          0.20020       -5.69750        0.96040
H          0.37330       -5.88950        2.02370
H          0.67580       -6.47210        0.35970
O          1.56620       -4.13970       -0.29480
H         -0.88120       -5.71070        0.79140
