14
Properties=species:S:1:pos:R:3:forces:R:3 energy=-31478.21288947517 stress="0.0 0.0 0.0 0.0 0.0 0.0 0.0 0.0 0.0" pbc="F F F"
C          2.00630      -24.63580       -0.87700
H          0.95190      -24.66580       -1.12070
C          2.79190      -25.66180       -0.45480
H          2.45580      -26.67900       -0.30130
N          4.10810      -25.35450       -0.21510
C          4.30370      -24.09520       -0.44150
S          2.94140      -23.19750       -0.99180
S          5.88670      -23.29460       -0.19690
C          7.01230      -24.36610       -1.06800
H          6.91110      -25.37470       -0.65910
H          8.01730      -23.97760       -0.88720
H          6.77990      -24.34120       -2.13440
O          6.21710      -23.36570        1.21990
O          5.81130      -22.02010       -0.89400
