18
Properties=species:S:1:pos:R:3:forces:R:3 energy=-8899.731070988735 stress="0.0 0.0 0.0 0.0 0.0 0.0 0.0 0.0 0.0" pbc="F F F"
C          2.71530       -1.09690        0.75850
H          3.80450       -1.16840        0.83570
H          2.48810       -0.26350        0.08530
H          2.32120       -0.86240        1.75360
C          2.14470       -2.40720        0.24580
H          2.48880       -3.24780        0.85180
H          2.49590       -2.59560       -0.78110
N          0.68410       -2.43830        0.28130
C         -0.02270       -1.22360       -0.07630
H         -1.09980       -1.37590       -0.03140
H          0.22690       -0.42180        0.62430
H          0.23550       -0.88140       -1.08960
C          0.10800       -3.68370        0.25060
C         -1.40520       -3.75240        0.17110
H         -1.88100       -3.17960        0.97330
H         -1.77220       -3.37210       -0.78760
H         -1.68780       -4.80100        0.26450
O          0.78350       -4.70080        0.30530
