18
Properties=species:S:1:pos:R:3:forces:R:3 energy=-21768.36386707839 stress="0.0 0.0 0.0 0.0 0.0 0.0 0.0 0.0 0.0" pbc="F F F"
C         30.18030       -8.34930        0.02880
H         30.72820       -7.41130        0.05720
C         28.79170       -8.35880        0.01690
H         28.23940       -7.42360        0.03840
C         28.12440       -9.57790       -0.02140
H         27.03970       -9.63130       -0.03040
C         28.88640      -10.73980       -0.04970
H         28.40420      -11.71560       -0.08210
N         30.21730      -10.75100       -0.04300
C         30.85500       -9.57490        0.00050
C         33.06920      -10.78590       -0.18440
H         32.60060      -11.74510       -0.37230
C         34.47140      -10.54470       -0.11660
H         35.22700      -11.31030       -0.25270
C         34.76230       -9.23850        0.14020
H         35.73680       -8.78180        0.24390
S         33.34090       -8.28520        0.29990
C         32.32690       -9.66000        0.02460
