14
Properties=species:S:1:pos:R:3:forces:R:3 energy=-7010.038852887301 stress="0.0 0.0 0.0 0.0 0.0 0.0 0.0 0.0 0.0" pbc="F F F"
C          0.03230       -0.03200        0.01370
H          0.02720       -0.66570       -0.88300
H          0.05270       -0.70520        0.87840
C         -1.23900        0.81650        0.01650
H         -1.22830        1.48180       -0.85730
H         -1.23360        1.46880        0.90020
C         -2.50880       -0.02830        0.00320
H         -2.54610       -0.66840       -0.88630
H         -3.40770        0.59690        0.00310
H         -2.55510       -0.68140        0.88260
C          1.31820        0.78750        0.03210
H          1.14950        1.81630       -0.31130
H          2.08630        0.33600       -0.60690
F          1.83610        0.83800        1.32050
