14
Properties=species:S:1:pos:R:3:forces:R:3 energy=-9710.13942819524 stress="0.0 0.0 0.0 0.0 0.0 0.0 0.0 0.0 0.0" pbc="F F F"
C         -0.12240       -0.09500       -0.07710
H         -0.18170        0.43750       -1.03440
H         -0.22430        0.66330        0.70700
C          1.23330       -0.79230        0.04360
H          1.31920       -1.55670       -0.73760
H          1.28030       -1.32230        1.00220
C          2.39250        0.19300       -0.06400
H          2.37350        0.71690       -1.02680
H          3.35780       -0.31550        0.02150
H          2.34040        0.94900        0.72790
C         -1.33110       -1.02340        0.04970
H         -1.98450       -1.01350       -0.82900
F         -2.09320       -0.66180        1.12450
F         -0.94830       -2.31840        0.24980
