22
Properties=species:S:1:pos:R:3:forces:R:3 energy=-13046.156441227266 stress="0.0 0.0 0.0 0.0 0.0 0.0 0.0 0.0 0.0" pbc="F F F"
C          2.18550       -3.45260       -0.99890
H          1.78130       -4.43780       -0.78550
C          1.42110       -2.32250       -0.72520
H          0.41000       -2.43970       -0.34380
C          1.93960       -1.04880       -0.96890
C          1.15930        0.22170       -0.76270
C          3.19950       -0.92560       -1.55610
H          3.56710        0.06870       -1.79420
C          3.96930       -2.05300       -1.81310
H          4.96090       -1.94350       -2.24510
C          3.46630       -3.32020       -1.52830
H          4.06550       -4.20360       -1.73180
N          0.13700        0.21880        0.16050
C         -0.71890        1.39230        0.16530
H         -0.84890        1.74800       -0.85670
H         -0.28530        2.21040        0.75970
H         -1.69100        1.12610        0.58990
C          0.23490       -0.44170        1.45120
H          1.02390       -1.19430        1.45550
H         -0.72100       -0.91930        1.69680
H          0.46060        0.28320        2.24720
O          1.40280        1.21330       -1.43580
