16
Properties=species:S:1:pos:R:3:forces:R:3 energy=-10906.860125614416 stress="0.0 0.0 0.0 0.0 0.0 0.0 0.0 0.0 0.0" pbc="F F F"
C          7.55110      -21.31220        0.18820
H          6.65170      -20.71280        0.29560
C          7.51820      -22.69600        0.32110
H          6.58540      -23.21210        0.53340
C          8.70080      -23.40800        0.16400
H          8.73710      -24.49220        0.21960
C          9.86980      -22.69540       -0.08930
N          9.91680      -21.36900       -0.23000
C          8.76930      -20.70160       -0.09320
H          8.83270      -19.62140       -0.20920
C         11.17420      -23.43080       -0.31030
O         11.25620      -24.32380       -1.12470
C         12.29720      -23.03690        0.61550
H         13.18910      -23.62120        0.38430
H         12.50250      -21.96610        0.50280
H         11.99870      -23.19300        1.65840
