14
Properties=species:S:1:pos:R:3:forces:R:3 energy=-4310.549970770482 stress="0.0 0.0 0.0 0.0 0.0 0.0 0.0 0.0 0.0" pbc="F F F"
C          0.13240        0.16120        0.16400
H          1.02860        0.10080       -0.46520
H         -0.63000        0.71540       -0.39350
C         -0.36600       -1.23230        0.54360
H         -0.72380       -1.74760       -0.35690
C          0.69280       -2.10260        1.22800
H          0.26540       -3.09350        1.42790
H          1.52910       -2.26520        0.53350
C          1.22910       -1.51140        2.53080
H          0.41290       -1.29760        3.23140
H          1.91960       -2.20350        3.02410
H          1.77070       -0.57550        2.35670
H         -1.23710       -1.13640        1.20710
H          0.38760        0.75380        1.04900
