18
Properties=species:S:1:pos:R:3:forces:R:3 energy=-10939.141052720592 stress="0.0 0.0 0.0 0.0 0.0 0.0 0.0 0.0 0.0" pbc="F F F"
C         -3.11950        1.30180       -2.40170
H         -4.15740        1.52070       -2.63460
C         -2.09410        2.15770       -2.78350
H         -2.30860        3.07390       -3.32870
C         -0.78660        1.81950       -2.45940
H          0.04340        2.46230       -2.74390
C         -0.54910        0.63560       -1.76050
N         -1.53370       -0.18650       -1.38040
C         -2.78440        0.14620       -1.70610
H         -3.55930       -0.54950       -1.38870
C          0.86160        0.22430       -1.38200
H          0.97370       -0.85310       -1.57170
H          1.58710        0.76370       -2.00160
O          1.19690        0.52470       -0.04260
C          0.83060       -0.47580        0.88020
H          1.15480       -0.12490        1.86350
H         -0.25200       -0.65330        0.89330
H          1.33970       -1.42660        0.65890
