14
Properties=species:S:1:pos:R:3:forces:R:3 energy=-9710.319712249799 stress="0.0 0.0 0.0 0.0 0.0 0.0 0.0 0.0 0.0" pbc="F F F"
C         -0.13050       -0.08410       -0.07520
H         -0.20610        0.42010       -1.04730
H         -0.24240        0.68430        0.69920
C          1.21920       -0.79040        0.04570
H          1.29290       -1.55230       -0.73810
H          1.25600       -1.32240        1.00350
C          2.38770        0.18430       -0.06000
H          2.37570        0.70860       -1.02270
H          3.34920       -0.33140        0.02760
H          2.34020        0.94070        0.73190
C         -1.30400       -1.02620        0.05100
H         -2.27020       -0.56160       -0.17720
F         -1.36800       -1.51540        1.32660
F         -1.14450       -2.09870       -0.77900
