14
Properties=species:S:1:pos:R:3:forces:R:3 energy=-10306.987599115246 stress="0.0 0.0 0.0 0.0 0.0 0.0 0.0 0.0 0.0" pbc="F F F"
O          5.58680       -9.99730       -0.41230
C          4.64550      -12.12630        0.19320
H          4.65100      -12.33390        1.26850
H          3.68870      -11.68800       -0.09620
H          4.80760      -13.08390       -0.31270
C          5.76050      -11.16970       -0.13390
N          7.54200      -12.94330       -0.02920
C          8.90860      -12.88460        0.01020
H          9.51410      -13.78190        0.02470
C          9.33800      -11.58070        0.02130
H         10.32550      -11.14210        0.04620
N          8.20010      -10.82650       -0.00870
H          8.10750       -9.82280       -0.06670
C          7.14650      -11.68700       -0.02400
