19
Properties=species:S:1:pos:R:3:forces:R:3 energy=-12439.86880576499 stress="0.0 0.0 0.0 0.0 0.0 0.0 0.0 0.0 0.0" pbc="F F F"
C          5.62420      -17.48340        0.01180
H          6.19370      -18.40910        0.02840
C          4.23540      -17.49720        0.00300
H          3.70480      -18.44570       -0.00220
C          3.52390      -16.30000        0.00460
H          2.43730      -16.31230       -0.00090
C          4.20910      -15.08750        0.01780
H          3.66000      -14.14930        0.02210
C          5.59890      -15.07170        0.01990
H          6.12460      -14.11880        0.04340
C          6.31730      -16.27050        0.01630
N          8.55740      -17.23120        0.48320
C          9.84430      -16.82680        0.23580
H         10.69090      -17.42570        0.54450
C          9.85750      -15.63180       -0.42590
H         10.65940      -15.00860       -0.79270
N          8.53360      -15.29050       -0.57270
H          8.17520      -14.50680       -1.09490
C          7.78830      -16.28150       -0.00220
