11
Properties=species:S:1:pos:R:3:forces:R:3 energy=-5940.472521696287 stress="0.0 0.0 0.0 0.0 0.0 0.0 0.0 0.0 0.0" pbc="F F F"
F         13.25600      -26.48820        0.00500
C         14.39350      -25.69440        0.00010
H         14.34110      -25.05570       -0.88830
H         14.34600      -25.05180        0.88610
C         15.67260      -26.54890       -0.00150
H         16.27690      -26.28630       -0.87770
H         16.28180      -26.28250        0.87010
C         15.39220      -28.04900        0.00250
H         14.81270      -28.34030       -0.87790
H         14.81770      -28.33650        0.88740
H         16.32500      -28.62180        0.00110
