18
Properties=species:S:1:pos:R:3:forces:R:3 energy=-6415.9912562998725 stress="0.0 0.0 0.0 0.0 0.0 0.0 0.0 0.0 0.0" pbc="F F F"
C          4.19460       -2.22510       -1.59740
H          3.93820       -3.03270       -0.90280
H          5.26470       -2.29660       -1.81740
C          3.83010       -0.85930       -0.99560
H          4.39960       -0.75980       -0.05720
C          2.33930       -0.79840       -0.66190
H          2.05470       -1.60450        0.02280
H          1.74290       -0.90780       -1.57600
H          2.07590        0.15600       -0.19360
C          4.22620        0.29200       -1.89810
H          3.42340        0.94950       -2.24590
C          5.47200        0.54650       -2.28830
H          6.27610       -0.11660       -1.96090
C          5.88360        1.70020       -3.15330
H          6.39170        1.35000       -4.05960
H          6.58930        2.35230       -2.62500
H          3.64800       -2.39340       -2.53290
H          5.02020        2.30280       -3.45490
