14
Properties=species:S:1:pos:R:3:forces:R:3 energy=-4310.531380089425 stress="0.0 0.0 0.0 0.0 0.0 0.0 0.0 0.0 0.0" pbc="F F F"
C          1.67870       -2.73300        0.23630
H          2.22640       -1.97710       -0.33910
H          2.41730       -3.35410        0.75390
C          0.69810       -2.09800        1.22170
H          1.24160       -1.49100        1.95800
C         -0.37080       -1.23340        0.54290
H         -0.74660       -1.75440       -0.34770
H         -1.22950       -1.12610        1.21810
C          0.12820        0.16100        0.16580
H          0.96860        0.11770       -0.53730
H         -0.66430        0.75440       -0.30220
H          0.47060        0.70260        1.05520
H          0.20680       -2.89840        1.78980
H          1.14810       -3.37130       -0.47980
