11
Properties=species:S:1:pos:R:3:forces:R:3 energy=-5940.485386372898 stress="0.0 0.0 0.0 0.0 0.0 0.0 0.0 0.0 0.0" pbc="F F F"
F         13.25880      -26.48380        0.00230
C         14.39310      -25.68350        0.00220
H         14.34930      -25.05860        0.90340
H         14.34150      -25.02190       -0.86900
C         15.65760      -26.54650       -0.00140
H         16.12800      -26.53150       -0.99010
H         15.32980      -27.57700        0.17510
C         16.65880      -26.13600        1.07550
H         17.00110      -25.10510        0.92890
H         16.20680      -26.19880        2.07180
H         17.54050      -26.78420        1.06720
