15
Properties=species:S:1:pos:R:3:forces:R:3 energy=-7830.495842543564 stress="0.0 0.0 0.0 0.0 0.0 0.0 0.0 0.0 0.0" pbc="F F F"
C          2.61440       -1.42240       -0.78390
H          3.69640       -1.28580       -0.68290
H          2.42580       -2.01160       -1.68660
H          2.16370       -0.43190       -0.91700
C          2.04540       -2.12860        0.44110
H          2.52130       -3.10000        0.58610
H          2.22700       -1.53300        1.34520
N          0.62730       -2.40330        0.31040
H         -0.00870       -1.62780        0.21010
C          0.11790       -3.66960        0.35370
C         -1.38970       -3.74870        0.20330
H         -1.73160       -4.69700        0.61900
H         -1.90260       -2.92200        0.70640
H         -1.66030       -3.72170       -0.85830
O          0.82120       -4.65820        0.48450
