19
Properties=species:S:1:pos:R:3:forces:R:3 energy=-12543.205194970007 stress="0.0 0.0 0.0 0.0 0.0 0.0 0.0 0.0 0.0" pbc="F F F"
C          4.41290      -10.38890       -0.00810
H          4.96190      -11.32730       -0.01160
C          3.02140      -10.39160       -0.00010
H          2.48120      -11.33470        0.00230
C          2.32360       -9.18790        0.01100
H          1.23630       -9.18860        0.02030
C          3.01960       -7.98160        0.01320
H          2.47690       -7.03920        0.02560
C          4.40960       -7.97900       -0.00130
H          4.95700       -7.04000       -0.00650
C          5.11780       -9.18430       -0.02600
C          7.47650       -9.58930        0.97590
H          7.22320      -10.06280        1.91410
C          8.78120       -9.26340        0.48360
H          9.72980       -9.43780        0.97290
C          8.58430       -8.68670       -0.72730
H          9.24410       -8.27890       -1.47960
O          7.26080       -8.62290       -1.01890
C          6.59190       -9.20000        0.01950
