15
Properties=species:S:1:pos:R:3:forces:R:3 energy=-7830.341340343731 stress="0.0 0.0 0.0 0.0 0.0 0.0 0.0 0.0 0.0" pbc="F F F"
C          2.95450       -3.10150        1.11350
H          3.94180       -2.67530        1.31980
H          2.57290       -3.56460        2.02650
H          3.05400       -3.88530        0.36090
C          2.01710       -2.00420        0.63690
H          1.99500       -1.19150        1.37260
H          2.40420       -1.56780       -0.29420
N          0.63640       -2.42600        0.41570
H         -0.02130       -1.67490        0.27800
C          0.10870       -3.68240        0.39690
C         -1.39320       -3.72750        0.16340
H         -1.85480       -2.74830        0.00060
H         -1.58800       -4.36310       -0.70440
H         -1.86270       -4.20370        1.02870
O          0.74560       -4.71340        0.54790
