16
Properties=species:S:1:pos:R:3:forces:R:3 energy=-9433.376017368986 stress="0.0 0.0 0.0 0.0 0.0 0.0 0.0 0.0 0.0" pbc="F F F"
C         -2.13910        1.06780       -0.83450
H         -2.68260        1.84070       -0.29660
C         -2.82710        0.00140       -1.40780
H         -3.90850       -0.06280       -1.31970
C         -2.12090       -0.98270       -2.09370
H         -2.64830       -1.81820       -2.54700
C         -0.73690       -0.90210       -2.21470
H         -0.17120       -1.66650       -2.74220
C         -0.05670        0.16480       -1.63160
C         -0.75530        1.15250       -0.94230
H         -0.19990        1.97140       -0.49440
O          1.31650        0.23820       -1.67580
C          1.85670        0.55910       -2.94430
H          2.94250        0.56450       -2.82620
H          1.58550       -0.18450       -3.70630
H          1.52330        1.55090       -3.27900
