18
Properties=species:S:1:pos:R:3:forces:R:3 energy=-21768.18464325787 stress="0.0 0.0 0.0 0.0 0.0 0.0 0.0 0.0 0.0" pbc="F F F"
C         30.19440       -8.37300       -0.01420
H         30.77610       -7.45590       -0.03250
C         28.80680       -8.34850       -0.00160
H         28.27170       -7.40310       -0.00730
C         28.12010       -9.55680        0.01610
H         27.03460       -9.59230        0.02530
C         28.86030      -10.73310        0.02030
H         28.36030      -11.69950        0.03170
N         30.19390      -10.77630        0.01150
C         30.84500       -9.60970       -0.00210
C         33.15320       -9.89560        1.04650
H         32.76830      -10.11850        2.03530
C         34.53810       -9.81000        0.70850
H         35.34850       -9.95420        1.41520
C         34.72860       -9.52660       -0.61090
H         35.66410       -9.40530       -1.14190
S         33.23860       -9.35910       -1.45580
C         32.33070       -9.67550       -0.01940
