11
Properties=species:S:1:pos:R:3:forces:R:3 energy=-7300.945360300512 stress="0.0 0.0 0.0 0.0 0.0 0.0 0.0 0.0 0.0" pbc="F F F"
C         -0.04570       -3.47780        2.65630
H         -0.26040       -2.48630        3.05700
H         -0.93130       -4.11240        2.77410
O          0.27910       -3.27890        1.28940
C          0.72770       -4.33180        0.56040
H          0.79260       -3.91770        3.21160
C          0.22460       -5.70110        0.96310
H         -0.87070       -5.71790        0.99280
H          0.57340       -6.42570        0.22710
O          1.42430       -4.13000       -0.39750
H          0.59770       -5.99170        1.95140
