20
Properties=species:S:1:pos:R:3:forces:R:3 energy=-13476.226533476764 stress="0.0 0.0 0.0 0.0 0.0 0.0 0.0 0.0 0.0" pbc="F F F"
C         21.68660      -26.60390       -0.00650
H         22.23820      -27.54160       -0.02830
C         20.29440      -26.60720        0.00520
H         19.75450      -27.55070        0.01000
C         19.59580      -25.40310        0.00650
H         18.50870      -25.40540        0.01170
C         20.28910      -24.19560        0.00680
H         19.74480      -23.25470        0.01760
C         21.68130      -24.19180        0.00590
H         22.22770      -23.25130        0.03910
C         22.38300      -25.39650       -0.02730
C         25.83840      -25.61510       -1.10120
H         26.34830      -25.82100       -2.04060
N         24.50770      -25.64250       -1.14110
C         23.87560      -25.39720        0.01140
N         24.45260      -25.09410        1.17880
C         25.78420      -25.08520        1.19310
H         26.24970      -24.85550        2.14990
C         26.54590      -25.34320        0.06170
H         27.63000      -25.32780        0.08390
