19
Properties=species:S:1:pos:R:3:forces:R:3 energy=-12439.521936449952 stress="0.0 0.0 0.0 0.0 0.0 0.0 0.0 0.0 0.0" pbc="F F F"
C         21.31390      -34.79710        0.00160
H         21.82470      -33.83710        0.00040
C         19.92640      -34.83570        0.00110
H         19.35440      -33.91130       -0.00050
C         19.28520      -36.06840        0.00270
H         18.20230      -36.14690        0.00230
C         20.07650      -37.21190        0.00470
H         19.61850      -38.19950        0.00600
N         21.40610      -37.19320        0.00520
C         22.02350      -36.00350        0.00370
C         24.29740      -37.17940        0.00640
H         23.93320      -38.19830        0.00780
C         25.64060      -36.72990        0.00630
H         26.53160      -37.34360        0.00760
C         25.61210      -35.35620        0.00430
H         26.41670      -34.63460        0.00350
N         24.30340      -34.96050        0.00310
H         23.99240      -34.00410        0.00160
C         23.48680      -36.06720        0.00440
