21
Properties=species:S:1:pos:R:3:forces:R:3 energy=-13040.006345863681 stress="0.0 0.0 0.0 0.0 0.0 0.0 0.0 0.0 0.0" pbc="F F F"
C         21.82140      -22.01100       -0.02470
H         22.33370      -22.96910       -0.02710
C         20.43140      -22.00160       -0.01980
H         19.88920      -22.94370       -0.03660
C         19.73870      -20.79510        0.00490
H         18.65230      -20.78770        0.00690
C         20.44710      -19.59770        0.03150
H         19.91570      -18.64940        0.05590
C         21.83590      -19.60640        0.02990
H         22.39330      -18.67580        0.05670
C         22.54240      -20.81360       -0.00910
C         26.18580      -21.84590       -0.24420
H         26.79500      -22.72490       -0.44000
C         24.80160      -21.93720       -0.27270
H         24.33150      -22.88580       -0.51170
C         24.03670      -20.79510       -0.00960
N         24.60880      -19.60890        0.23710
C         25.93720      -19.53760        0.27040
H         26.35290      -18.55500        0.48830
C         26.77660      -20.62110        0.03960
H         27.85480      -20.50260        0.07630
