10
Properties=species:S:1:pos:R:3:forces:R:3 energy=-6263.418507077142 stress="0.0 0.0 0.0 0.0 0.0 0.0 0.0 0.0 0.0" pbc="F F F"
O          0.05490       -2.11110        1.22100
H         -0.03990       -1.47980        1.94310
C          0.30380       -3.38500        1.78550
H          1.20950       -3.37850        2.40900
H         -0.53510       -3.73050        2.40990
C          0.53060       -4.35420        0.64070
H         -0.43410       -4.63670        0.19070
H          1.12440       -3.83860       -0.12790
O          1.22040       -5.47450        1.16250
H          1.41270       -6.07190        0.43100
