17
Properties=species:S:1:pos:R:3:forces:R:3 energy=-12850.403943908932 stress="0.0 0.0 0.0 0.0 0.0 0.0 0.0 0.0 0.0" pbc="F F F"
C         15.73310      -21.97000        0.00540
H         14.77760      -21.45680        0.00320
C         15.81660      -23.36340       -0.00950
H         14.91550      -23.97130       -0.02370
C         17.05690      -23.96890       -0.01000
H         17.15760      -25.05170       -0.02890
C         18.20450      -23.15390        0.01130
N         18.13470      -21.82230        0.03220
C         16.91910      -21.25880        0.02360
H         16.90530      -20.17100        0.03730
N         19.44760      -23.77130       -0.03390
H         19.44430      -24.78080       -0.05300
C         20.73590      -23.30400        0.29590
N         20.87630      -21.96220        0.37710
H         21.77940      -21.61800        0.65890
H         20.06730      -21.35770        0.30100
O         21.63040      -24.11680        0.45120
