14
Properties=species:S:1:pos:R:3:forces:R:3 energy=-7010.005173864403 stress="0.0 0.0 0.0 0.0 0.0 0.0 0.0 0.0 0.0" pbc="F F F"
C          0.03050       -0.02440       -0.02030
H          0.01740       -0.71480       -0.87210
H          0.05660       -0.64370        0.88390
C         -1.24280        0.82060       -0.01100
H         -1.25840        1.46910       -0.89770
H         -1.22130        1.49040        0.85960
C         -2.50830       -0.03050        0.02670
H         -2.56020       -0.69340       -0.84500
H         -3.41040        0.58970        0.03040
H         -2.53120       -0.66110        0.92310
C          1.31770        0.80160       -0.01780
H          1.10690        1.85850        0.19240
H          1.84550        0.74710       -0.97580
F          2.17780        0.35040        0.97420
