15
Properties=species:S:1:pos:R:3:forces:R:3 energy=-21141.90632873952 stress="0.0 0.0 0.0 0.0 0.0 0.0 0.0 0.0 0.0" pbc="F F F"
C         28.03170      -17.35470        0.05910
N         29.33370      -16.84180        0.03990
H         29.33410      -15.83240        0.10990
N         30.74840      -18.75780       -0.15420
C         32.09920      -19.03840       -0.13150
H         32.42110      -20.06380       -0.26860
C         32.93420      -17.99290        0.06510
H         34.01310      -17.99120        0.11750
S         32.00720      -16.53980        0.23630
C         30.55490      -17.49030        0.02550
O         27.11860      -16.56020        0.12950
C         27.83940      -18.84260       -0.01170
H         28.29960      -19.25410       -0.91270
H         26.76710      -19.03720       -0.00240
H         28.32380      -19.33660        0.83390
