18
Properties=species:S:1:pos:R:3:forces:R:3 energy=-12980.040624746538 stress="0.0 0.0 0.0 0.0 0.0 0.0 0.0 0.0 0.0" pbc="F F F"
C          4.47540      -23.15400       -0.00130
H          5.03170      -24.08750        0.02170
C          3.08550      -23.14790       -0.00040
H          2.53860      -24.08720        0.00450
C          2.39490      -21.93830        0.00360
H          1.30790      -21.93410        0.00720
C          3.09570      -20.73420        0.01010
H          2.55660      -19.78990        0.02050
C          4.48550      -20.73720        0.00200
H          5.03830      -19.80190       -0.00140
C          5.17980      -21.94960       -0.02610
N          7.41180      -22.80650        0.66450
C          8.69620      -22.33930        0.43450
H          9.56440      -22.83320        0.84760
C          8.63590      -21.23840       -0.34330
H          9.35580      -20.55820       -0.77000
O          7.32130      -20.98840       -0.60860
C          6.64810      -21.98210        0.01860
