18
Properties=species:S:1:pos:R:3:forces:R:3 energy=-12979.53338976235 stress="0.0 0.0 0.0 0.0 0.0 0.0 0.0 0.0 0.0" pbc="F F F"
C         12.74770       -7.69900        0.00530
H         13.32920       -6.78110        0.01140
C         11.35990       -7.66920        0.00880
H         10.82630       -6.72270        0.01510
C         10.66770       -8.87320       -0.00070
H          9.58210       -8.90410       -0.00220
C         11.40540      -10.05490       -0.01260
H         10.90260      -11.02040       -0.02630
N         12.73530      -10.10120       -0.00700
C         13.39450       -8.93700        0.01250
C         15.76240       -8.31410       -0.81940
H         15.52440       -7.56060       -1.55840
C         17.05340       -8.81980       -0.46790
H         18.01090       -8.52840       -0.87800
C         16.83360       -9.75160        0.49240
H         17.47950      -10.40400        1.06150
O         15.51040       -9.87000        0.75590
C         14.86750       -8.97270       -0.03360
