22
Properties=species:S:1:pos:R:3:forces:R:3 energy=-15303.32253813101 stress="0.0 0.0 0.0 0.0 0.0 0.0 0.0 0.0 0.0" pbc="F F F"
C         12.83250      -32.38760        0.80050
H         13.38190      -31.71220        1.44900
C         11.44570      -32.32100        0.82230
H         10.95530      -31.58310        1.45260
C         10.69080      -33.19070        0.04360
H          9.60570      -33.14090        0.05420
C         11.34580      -34.12970       -0.74420
H         10.77140      -34.82260       -1.35380
C         12.73360      -34.20330       -0.76140
H         13.21100      -34.93950       -1.39420
C         13.51110      -33.31470       -0.00440
C         17.14500      -32.26700        0.49260
H         17.66940      -31.40490        0.89560
C         15.75740      -32.29470        0.51570
H         15.24570      -31.42380        0.91010
C         15.01030      -33.37620        0.02140
C         15.77470      -34.41640       -0.52300
C         17.15980      -34.41750       -0.55950
H         17.66640      -35.27470       -0.99310
C         17.85570      -33.33320       -0.04610
H         18.94100      -33.32110       -0.06890
F         15.18030      -35.52910       -1.01390
