14
Properties=species:S:1:pos:R:3:forces:R:3 energy=-4310.407482697307 stress="0.0 0.0 0.0 0.0 0.0 0.0 0.0 0.0 0.0" pbc="F F F"
C          0.12040        0.17470        0.16250
H          0.45050        0.73940        1.04040
H         -0.68780        0.74330       -0.30960
C         -0.35910       -1.22610        0.54730
H         -1.21550       -1.10500        1.22350
C          0.69470       -2.12880        1.23310
H          1.09710       -2.83030        0.49060
H          0.20260       -2.74890        1.99190
C          1.88270       -1.39800        1.86160
H          2.44150       -0.82640        1.11350
H          2.57770       -2.11130        2.31710
H          1.56560       -0.70020        2.64620
H         -0.75110       -1.73620       -0.34070
H          0.95680        0.14080       -0.54630
