23
Properties=species:S:1:pos:R:3:forces:R:3 energy=-24888.677476030254 stress="0.0 0.0 0.0 0.0 0.0 0.0 0.0 0.0 0.0" pbc="F F F"
C          4.06780       -1.85590       -1.18680
H          4.98520       -1.40240       -1.55160
C          2.88170       -1.13050       -1.20680
H          2.84790       -0.11600       -1.59460
C          1.71040       -1.72720       -0.75060
S          0.25520       -0.70490       -0.70450
N         -0.97600       -1.84870       -0.67390
C         -1.24040       -2.44910       -1.97970
H         -0.36270       -3.00540       -2.32110
H         -1.50620       -1.69870       -2.73410
H         -2.06310       -3.16030       -1.86160
C         -2.18210       -1.39720        0.02250
H         -1.89710       -0.99520        0.99520
H         -2.82330       -2.26990        0.17340
H         -2.73600       -0.63080       -0.53860
C          1.71150       -3.02380       -0.24300
H          0.79340       -3.46380        0.13830
C          2.90410       -3.74100       -0.22760
H          2.91630       -4.75700        0.15660
C          4.07900       -3.16090       -0.70020
H          5.00710       -3.72690       -0.68550
O          0.20520        0.04580       -1.95380
O          0.21810        0.00500        0.56800
