14
Properties=species:S:1:pos:R:3:forces:R:3 energy=-12410.575933885439 stress="0.0 0.0 0.0 0.0 0.0 0.0 0.0 0.0 0.0" pbc="F F F"
C         -0.14300       -0.00190        0.17110
H          0.20050       -0.62750       -0.65760
H          0.05150       -0.55480        1.09540
C          0.60650        1.33010        0.20230
H          0.22590        1.93440        1.03270
H          0.38810        1.89000       -0.71510
C          2.11170        1.13340        0.34500
H          2.35210        0.59920        1.27130
H          2.51250        0.54950       -0.49140
H          2.63880        2.09230        0.36590
C         -1.65540        0.13100        0.04540
F         -2.08690        1.39450        0.21960
F         -2.29020       -0.62940        0.96060
F         -2.09540       -0.27760       -1.16110
