23
Properties=species:S:1:pos:R:3:forces:R:3 energy=-24888.712646432537 stress="0.0 0.0 0.0 0.0 0.0 0.0 0.0 0.0 0.0" pbc="F F F"
C          3.82120       -2.33150        0.26760
H          4.60250       -2.17530        1.00620
C          2.68460       -1.53040        0.28510
H          2.54870       -0.74260        1.02070
C          1.69470       -1.74450       -0.66780
S          0.25620       -0.70690       -0.66200
N         -0.97930       -1.85100       -0.71160
C         -1.12010       -2.60620        0.53070
H         -0.20820       -3.17770        0.72480
H         -1.33720       -1.96010        1.39050
H         -1.93670       -3.32100        0.39480
C         -2.24210       -1.30400       -1.20970
H         -2.05610       -0.79120       -2.15440
H         -2.91820       -2.14390       -1.39220
H         -2.71370       -0.60520       -0.50350
C          1.81250       -2.74020       -1.63190
H          1.01560       -2.88990       -2.35630
C          2.95540       -3.53340       -1.64170
H          3.06550       -4.31520       -2.38840
C          3.95670       -3.33080       -0.69410
H          4.84720       -3.95470       -0.70500
O          0.21830       -0.00580        0.61530
O          0.19960        0.04540       -1.90830
