18
Properties=species:S:1:pos:R:3:forces:R:3 energy=-12980.135775286744 stress="0.0 0.0 0.0 0.0 0.0 0.0 0.0 0.0 0.0" pbc="F F F"
C          4.49270      -20.74110       -0.01200
H          5.04840      -19.80800       -0.02640
C          3.10290      -20.73420       -0.00790
H          2.56700      -19.78810       -0.01570
C          2.39760      -21.93590        0.00390
H          1.31080      -21.92730        0.00630
C          3.08320      -23.14870        0.01190
H          2.53260      -24.08560        0.02060
C          4.47230      -23.16130        0.00970
H          5.02670      -24.09610        0.02100
C          5.17990      -21.95740        0.00160
N          7.42260      -23.01740        0.15780
C          8.70310      -22.49690        0.07540
H          9.58120      -23.11860        0.17790
C          8.62880      -21.16730       -0.14080
H          9.34480      -20.37110       -0.26940
O          7.30960      -20.82700       -0.19640
C          6.64560      -21.99350       -0.01270
