15
Properties=species:S:1:pos:R:3:forces:R:3 energy=-9870.354857042068 stress="0.0 0.0 0.0 0.0 0.0 0.0 0.0 0.0 0.0" pbc="F F F"
O         12.45010      -29.74170       -0.33380
C         11.39790      -31.81740        0.23800
H         11.44000      -32.14790        1.28110
H         10.47330      -31.26410        0.06240
H         11.41540      -32.71710       -0.38720
C         12.57690      -30.92740       -0.07230
C         14.40270      -32.81000        0.01080
H         13.80430      -33.71390        0.01960
C         15.81700      -32.73040        0.01410
H         16.51580      -33.55520        0.01810
C         16.15150      -31.39390        0.00600
H         17.11960      -30.91100        0.00040
N         15.00230      -30.67220        0.00270
H         14.89480      -29.67190       -0.07530
C         13.92120      -31.51380        0.02510
