14
Properties=species:S:1:pos:R:3:forces:R:3 energy=-4310.4553527728585 stress="0.0 0.0 0.0 0.0 0.0 0.0 0.0 0.0 0.0" pbc="F F F"
C          1.74310       -1.37370        2.05970
H          1.28600       -0.77810        2.86000
H          2.43770       -2.07780        2.52970
C          0.69450       -2.11960        1.23340
H          0.18410       -2.85910        1.86220
C         -0.35930       -1.22690        0.54460
H         -0.74540       -1.74440       -0.34190
H         -1.21800       -1.10560        1.21910
C          0.12170        0.17240        0.15810
H          0.97770        0.13620       -0.52750
H         -0.67630        0.73150       -0.34160
H          0.42370        0.74760        1.03950
H          1.22880       -2.69580        0.46560
H          2.33450       -0.69610        1.43510
