17
Properties=species:S:1:pos:R:3:forces:R:3 energy=-8893.110132811866 stress="0.0 0.0 0.0 0.0 0.0 0.0 0.0 0.0 0.0" pbc="F F F"
C          1.53690       -1.88510       -2.28240
H          1.72770       -2.50850       -3.15310
C          2.43220       -1.88260       -1.21810
H          3.32420       -2.50210       -1.24710
C          2.16890       -1.07370       -0.11610
H          2.85770       -1.05740        0.72530
C          1.03000       -0.28110       -0.07620
H          0.82820        0.33920        0.79580
C          0.12180       -0.28640       -1.14370
C          0.39390       -1.09410       -2.25400
H         -0.29550       -1.11080       -3.09380
N         -1.04160        0.49020       -1.07590
H         -1.03090        1.08780       -0.26020
C         -1.50120        1.19620       -2.25900
H         -1.88180        0.48820       -3.00240
H         -0.72890        1.81540       -2.74190
H         -2.33700        1.84000       -1.97100
