11
Properties=species:S:1:pos:R:3:forces:R:3 energy=-5940.625964544122 stress="0.0 0.0 0.0 0.0 0.0 0.0 0.0 0.0 0.0" pbc="F F F"
F         13.26920      -26.48470        0.00500
C         14.39860      -25.68160        0.00000
H         14.36150      -25.04160       -0.89150
H         14.36640      -25.03750        0.88880
C         15.64560      -26.54280       -0.00140
H         15.62030      -27.19260        0.88120
H         15.61550      -27.19670       -0.88080
C         16.91490      -25.69560       -0.00680
H         16.96350      -25.04810        0.87670
H         16.95880      -25.05240       -0.89370
H         17.81130      -26.32370       -0.00770
