14
Properties=species:S:1:pos:R:3:forces:R:3 energy=-10306.582160393273 stress="0.0 0.0 0.0 0.0 0.0 0.0 0.0 0.0 0.0" pbc="F F F"
O          5.50080      -10.51710        1.32420
C          4.72080      -11.52380       -0.70780
H          5.00180      -11.02560       -1.64270
H          3.73340      -11.18890       -0.38390
H          4.71220      -12.60260       -0.90540
C          5.73690      -11.21580        0.36230
N          7.54290      -12.95220        0.11790
C          8.90840      -12.88200       -0.01530
H          9.51560      -13.77690       -0.05370
C          9.32170      -11.57780       -0.07080
H         10.29780      -11.12390       -0.16670
N          8.17400      -10.83280        0.02630
H          8.10830       -9.82920        0.10410
C          7.13380      -11.70730        0.11160
