23
Properties=species:S:1:pos:R:3:forces:R:3 energy=-24888.712598351332 stress="0.0 0.0 0.0 0.0 0.0 0.0 0.0 0.0 0.0" pbc="F F F"
C          3.91220       -2.12770       -1.57920
H          4.74290       -1.84090       -2.21780
C          2.75480       -1.35720       -1.56400
H          2.65060       -0.46750       -2.17880
C          1.69850       -1.73890       -0.74380
S          0.25560       -0.70450       -0.70380
N         -0.97710       -1.85000       -0.66650
C         -2.21940       -1.33990       -0.08460
H         -1.99430       -0.87720        0.87720
H         -2.72420       -0.60720       -0.73090
H         -2.88260       -2.19340        0.08080
C         -1.16760       -2.53930       -1.94020
H         -0.26390       -3.09980       -2.19630
H         -1.98060       -3.25980       -1.81220
H         -1.41280       -1.84900       -2.75700
C          1.77500       -2.87080        0.06280
H          0.93280       -3.15350        0.68950
C          2.93940       -3.63220        0.04130
H          3.01650       -4.51950        0.66360
C          4.00450       -3.26360       -0.77770
H          4.91090       -3.86400       -0.79080
O          0.21460        0.02120        0.55920
O          0.20460        0.02800       -1.96350
