12
Properties=species:S:1:pos:R:3:forces:R:3 energy=-6760.668219462346 stress="0.0 0.0 0.0 0.0 0.0 0.0 0.0 0.0 0.0" pbc="F F F"
C          0.25330       -3.32330        2.78460
H         -0.23180       -2.42120        3.16570
H          1.26040       -3.39260        3.22240
H         -0.33050       -4.18230        3.12720
N          0.24040       -3.27890        1.32920
H          0.62220       -2.41900        0.95050
C          0.72910       -4.33550        0.57330
C          0.20700       -5.70840        0.94530
H         -0.87440       -5.68690        1.11500
H          0.68180       -6.07190        1.86400
H          0.44110       -6.39740        0.13280
O          1.43120       -4.14000       -0.39990
