18
Properties=species:S:1:pos:R:3:forces:R:3 energy=-12413.667414324293 stress="0.0 0.0 0.0 0.0 0.0 0.0 0.0 0.0 0.0" pbc="F F F"
C          7.47450      -26.90400       -0.00220
H          6.56430      -26.31290        0.01080
C          7.44070      -28.29300        0.08740
H          6.49210      -28.81710        0.17310
C          8.62310      -29.01540        0.06760
H          8.65440      -30.09520        0.13410
C          9.81460      -28.29130       -0.04410
N          9.87110      -26.96100       -0.13140
C          8.71560      -26.29390       -0.10950
H          8.79510      -25.21010       -0.18240
N         11.07690      -28.90100       -0.07550
H         11.83070      -28.23430       -0.15940
C         11.39500      -30.23780       -0.00860
C         12.88870      -30.49880       -0.07490
H         13.30830      -30.11570       -1.01090
H         13.05590      -31.57360       -0.01620
H         13.40610      -30.00410        0.75370
O         10.57060      -31.12650        0.09320
