22
Properties=species:S:1:pos:R:3:forces:R:3 energy=-15303.335896550914 stress="0.0 0.0 0.0 0.0 0.0 0.0 0.0 0.0 0.0" pbc="F F F"
C         12.87010      -33.58040        1.19470
H         13.44200      -33.73470        2.10700
C         11.47900      -33.58200        1.22880
H         10.96130      -33.74360        2.17040
C         10.75410      -33.36950        0.05970
H          9.66680      -33.36730        0.08560
C         11.42410      -33.15750       -1.14170
H         10.86290      -32.98860       -2.05660
C         12.81490      -33.16280       -1.17380
H         13.34560      -33.00770       -2.10980
C         13.54940      -33.38770       -0.00950
C         17.14260      -32.23880        0.47060
H         17.67730      -31.37630        0.85760
C         15.75110      -32.24770        0.46640
H         15.19860      -31.39700        0.85680
C         15.03650      -33.33600       -0.03800
C         15.77280      -34.42350       -0.50080
C         17.15760      -34.44550       -0.50130
H         17.66940      -35.32210       -0.88410
C         17.84450      -33.33900       -0.01320
H         18.93110      -33.33970       -0.00950
F         15.10960      -35.48900       -0.98170
