19
Properties=species:S:1:pos:R:3:forces:R:3 energy=-21331.881750839486 stress="0.0 0.0 0.0 0.0 0.0 0.0 0.0 0.0 0.0" pbc="F F F"
C         21.78990       -8.52900       -0.00220
H         22.34180       -7.59240       -0.00270
C         20.39920       -8.51800        0.00440
H         19.86810       -7.56970        0.01120
C         19.69090       -9.71560        0.00200
H         18.60370       -9.70570        0.00710
C         20.37730      -10.92590       -0.00720
H         19.82900      -11.86440       -0.00950
C         21.76800      -10.94010       -0.01390
H         22.30270      -11.88650       -0.02340
C         22.48630       -9.74100       -0.01080
C         24.80310       -9.75640       -1.10320
H         24.42520       -9.74770       -2.11910
C         26.18830       -9.77070       -0.75430
H         26.99720       -9.77440       -1.47700
C         26.38080       -9.77940        0.59440
H         27.31720       -9.79070        1.13820
S         24.88970       -9.77030        1.45520
C         23.97330       -9.75440       -0.01740
