22
Properties=species:S:1:pos:R:3:forces:R:3 energy=-15303.37783766183 stress="0.0 0.0 0.0 0.0 0.0 0.0 0.0 0.0 0.0" pbc="F F F"
C         12.79480      -33.97000       -1.05700
H         13.30560      -34.60610       -1.77040
C         11.41430      -33.82990       -1.13930
H         10.86980      -34.37570       -1.90550
C         10.72920      -33.00660       -0.25270
H          9.64970      -32.90480       -0.31900
C         11.44380      -32.31450        0.71950
H         10.92690      -31.66350        1.42040
C         12.82460      -32.44220        0.79380
H         13.35420      -31.90700        1.57750
C         13.52760      -33.28380       -0.07940
C         17.15220      -32.26140        0.49720
H         17.68090      -31.40370        0.90380
C         15.76370      -32.26900        0.48800
H         15.24440      -31.39000        0.85760
C         15.02090      -33.34610       -0.01760
C         15.77740      -34.40480       -0.53180
C         17.16280      -34.42770       -0.53270
H         17.66960      -35.29520       -0.94440
C         17.85860      -33.34500       -0.01320
H         18.94420      -33.34830       -0.00910
F         15.16070      -35.50540       -1.01910
