19
Properties=species:S:1:pos:R:3:forces:R:3 energy=-11977.032414650987 stress="0.0 0.0 0.0 0.0 0.0 0.0 0.0 0.0 0.0" pbc="F F F"
C         -0.15470        0.11610       -1.59520
N         -1.50110        0.19090       -1.18110
H         -1.67380        0.81350       -0.40640
C          0.22920       -0.48630       -2.79490
H         -0.52120       -0.93770       -3.43140
C          1.57500       -0.50450       -3.14600
H          1.86660       -0.97580       -4.08190
C          2.54360        0.06000       -2.32210
H          3.59080        0.03490       -2.61040
C          2.15490        0.65550       -1.12560
H          2.89780        1.10170       -0.46910
C          0.81450        0.68720       -0.76420
H          0.51670        1.15520        0.17210
C         -2.55760       -0.58630       -1.59590
C         -3.84940       -0.29030       -0.85500
H         -3.74600       -0.50360        0.21460
H         -4.13130        0.76230       -0.96360
H         -4.63670       -0.91880       -1.26990
O         -2.47420       -1.42650       -2.47140
