15
Properties=species:S:1:pos:R:3:forces:R:3 energy=-7830.4929087201235 stress="0.0 0.0 0.0 0.0 0.0 0.0 0.0 0.0 0.0" pbc="F F F"
C          2.66810       -2.50900       -1.18070
H          3.75010       -2.33950       -1.17150
H          2.48300       -3.54710       -1.47010
H          2.22190       -1.85300       -1.93580
C          2.07940       -2.23560        0.20270
H          2.54710       -2.90090        0.93530
H          2.27970       -1.20670        0.51490
N          0.64130       -2.43840        0.28340
H          0.03070       -1.63880        0.23960
C          0.09670       -3.68420        0.21420
C         -1.42000       -3.73310        0.20850
H         -1.89000       -2.76810        0.42140
H         -1.76240       -4.08690       -0.76880
H         -1.74300       -4.46350        0.95430
O          0.77820       -4.69730        0.17330
