17
Properties=species:S:1:pos:R:3:forces:R:3 energy=-12850.222646664473 stress="0.0 0.0 0.0 0.0 0.0 0.0 0.0 0.0 0.0" pbc="F F F"
C         15.74360      -21.96340        0.01240
H         14.79190      -21.44140        0.02910
C         15.80860      -23.35520        0.02130
H         14.90010      -23.95160        0.04110
C         17.04440      -23.98000       -0.00880
H         17.15360      -25.05770       -0.02840
C         18.17990      -23.16670       -0.02360
N         18.14190      -21.83720       -0.03540
C         16.93640      -21.25830       -0.01920
H         16.93660      -20.16970       -0.02870
N         19.47270      -23.72490       -0.01640
H         20.17020      -23.00720        0.14660
C         19.84640      -24.72620       -0.91800
N         21.21630      -24.89900       -0.98050
H         21.48160      -25.72840       -1.49150
H         21.75630      -24.73020       -0.14380
O         19.06370      -25.36780       -1.58940
