14
Properties=species:S:1:pos:R:3:forces:R:3 energy=-7010.131006154566 stress="0.0 0.0 0.0 0.0 0.0 0.0 0.0 0.0 0.0" pbc="F F F"
C          0.03450       -0.03800        0.00210
H          0.05260       -0.65840       -0.90460
H          0.04580       -0.72200        0.85960
C         -1.23490        0.81270        0.00580
H         -1.22810        1.47010       -0.87440
H         -1.21450        1.47180        0.88330
C         -2.50920       -0.02560        0.00960
H         -2.55860       -0.67350       -0.87390
H         -3.40480        0.60440        0.01210
H         -2.55130       -0.67070        0.89510
C          1.30450        0.78980        0.04010
H          1.22300        1.68200       -0.59440
H          2.17120        0.20480       -0.29030
F          1.55170        1.20210        1.34440
