13
Properties=species:S:1:pos:R:3:forces:R:3 energy=-18603.303256701056 stress="0.0 0.0 0.0 0.0 0.0 0.0 0.0 0.0 0.0" pbc="F F F"
C         -1.11210       -1.38510       -0.60030
H         -0.37040       -1.17150       -1.37220
H         -0.94230       -0.77520        0.28910
H         -2.12030       -1.22040       -0.98450
S         -0.99050       -3.10640       -0.16910
O         -1.21940       -3.88230       -1.37670
N          0.62990       -3.25450        0.24560
H          0.72400       -2.98650        1.22170
O         -1.79230       -3.32450        1.02590
C          1.22600       -4.57580       -0.00580
H          1.08120       -4.82320       -1.05840
H          0.80310       -5.37790        0.61410
H          2.29620       -4.48950        0.19450
