17
Properties=species:S:1:pos:R:3:forces:R:3 energy=-12850.351919983428 stress="0.0 0.0 0.0 0.0 0.0 0.0 0.0 0.0 0.0" pbc="F F F"
C         15.72670      -21.97110       -0.01870
H         14.77150      -21.45780       -0.04370
C         15.80990      -23.36390       -0.00420
H         14.90920      -23.97250       -0.01770
C         17.05120      -23.96920        0.01800
H         17.15130      -25.05240        0.01540
C         18.19640      -23.15280        0.04290
N         18.12810      -21.82100        0.04210
C         16.91320      -21.25880       -0.00000
H         16.89830      -20.17100       -0.00760
N         19.45040      -23.75610       -0.02970
H         19.43930      -24.76050       -0.14160
C         20.65850      -23.38560        0.60090
N         20.78610      -22.07120        0.88950
H         21.65030      -21.77500        1.31210
H         20.04240      -21.42110        0.66990
O         21.50480      -24.23790        0.80400
