23
Properties=species:S:1:pos:R:3:forces:R:3 energy=-24888.61440298225 stress="0.0 0.0 0.0 0.0 0.0 0.0 0.0 0.0 0.0" pbc="F F F"
C          3.06730       -3.69030       -0.61670
H          3.11330       -4.76750       -0.49080
C          1.83090       -3.05180       -0.58000
H          0.93630       -3.65230       -0.43780
C          1.77240       -1.66750       -0.73240
S          0.27950       -0.68780       -0.67240
N         -0.96630       -1.77030       -0.68360
C         -1.35850       -2.38040        0.57510
H         -2.36880       -2.78240        0.46070
H         -1.37190       -1.60900        1.34690
H         -0.68780       -3.19020        0.89320
C         -1.25080       -2.46450       -1.92770
H         -1.19030       -1.74630       -2.74770
H         -2.27080       -2.85560       -1.88020
H         -0.55910       -3.29490       -2.12530
C          2.93590       -0.93300       -0.94730
H          2.86430        0.14140       -1.09140
C          4.16640       -1.57880       -0.98380
H          5.07420       -1.00400       -1.14570
C          4.23510       -2.95900       -0.81610
H          5.19680       -3.46480       -0.84400
O          0.21710        0.06520       -1.91650
O          0.23400       -0.00150        0.61040
