13
Properties=species:S:1:pos:R:3:forces:R:3 energy=-19635.243967362305 stress="0.0 0.0 0.0 0.0 0.0 0.0 0.0 0.0 0.0" pbc="F F F"
O         21.38190      -17.98970        0.95350
C         21.53710      -17.14550       -1.28900
H         21.76250      -17.78980       -2.14690
H         20.45840      -17.00530       -1.19580
H         22.02390      -16.18100       -1.47030
C         22.06510      -17.75990       -0.01470
N         23.94610      -19.35290        0.01320
C         25.31970      -19.38600        0.00620
H         25.81880      -20.34650        0.00580
C         25.94200      -18.17590        0.00450
H         27.00250      -17.96450        0.00070
S         24.76980      -16.91990        0.00860
C         23.52740      -18.12700        0.00810
