14
Properties=species:S:1:pos:R:3:forces:R:3 energy=-9710.19001023066 stress="0.0 0.0 0.0 0.0 0.0 0.0 0.0 0.0 0.0" pbc="F F F"
C         -0.12280       -0.09980       -0.08720
H         -0.19850        0.44580       -1.03480
H         -0.21450        0.64540        0.71200
C          1.23250       -0.79690        0.03850
H          1.33080       -1.55920       -0.74480
H          1.27110       -1.32700        0.99560
C          2.38920        0.19340       -0.06000
H          2.37230        0.72170       -1.02040
H          3.35580       -0.31250        0.02670
H          2.33180        0.94530        0.73530
C         -1.32740       -1.02320        0.04670
H         -1.76940       -1.30480       -0.91520
F         -2.30280       -0.41770        0.78290
F         -0.99280       -2.18850        0.67660
