19
Properties=species:S:1:pos:R:3:forces:R:3 energy=-12882.690626614141 stress="0.0 0.0 0.0 0.0 0.0 0.0 0.0 0.0 0.0" pbc="F F F"
C         26.83230       -9.56080        0.68480
N         27.24240      -10.59200       -0.13360
H         26.53330      -11.13990       -0.60030
N         28.60950      -12.53120       -0.22300
C         29.96310      -12.76300       -0.13230
H         30.36820      -13.76330       -0.20910
C         30.64000      -11.59390        0.03720
H         31.69100      -11.36090        0.13480
N         29.68050      -10.60020        0.06610
C         28.48470      -11.23680       -0.06900
O         27.56760       -9.04930        1.50600
C         25.39160       -9.14440        0.47510
H         24.71180       -9.95180        0.76870
H         25.18950       -8.26880        1.09090
H         25.20090       -8.90790       -0.57650
C         29.97630       -9.17600        0.06700
H         30.99610       -9.04610       -0.30200
H         29.28990       -8.66300       -0.60890
H         29.87670       -8.74790        1.06530
