18
Properties=species:S:1:pos:R:3:forces:R:3 energy=-6415.9948037348195 stress="0.0 0.0 0.0 0.0 0.0 0.0 0.0 0.0 0.0" pbc="F F F"
C          4.39840       -2.20310       -1.43760
H          4.10670       -2.99610       -0.74010
H          5.49160       -2.18900       -1.48780
C          3.82580       -0.85310       -0.98330
H          4.23200       -0.64490        0.01960
C          2.30190       -0.93220       -0.87070
H          1.99820       -1.72470       -0.17850
H          1.86180       -1.15430       -1.85060
H          1.87950        0.01260       -0.51220
C          4.23190        0.28670       -1.89480
H          3.42830        0.94840       -2.23290
C          5.47630        0.54420       -2.28670
H          6.28380       -0.11580       -1.96600
C          5.88140        1.70060       -3.15070
H          6.38920        1.35360       -4.05840
H          6.58600        2.35550       -2.62410
H          4.01940       -2.46750       -2.43200
H          5.01500        2.30010       -3.44960
