15
Properties=species:S:1:pos:R:3:forces:R:3 energy=-5346.42209614231 stress="0.0 0.0 0.0 0.0 0.0 0.0 0.0 0.0 0.0" pbc="F F F"
C          4.53820       -0.38140       -2.28950
H          5.59110       -0.13660       -2.11830
H          4.05360        0.50150       -2.72100
C          3.84720       -0.79590       -0.99200
H          3.95060        0.01470       -0.25570
H          4.35260       -1.66200       -0.54160
C          2.38050       -1.11200       -1.17120
H          1.91930       -0.82130       -2.11970
C          1.61080       -1.67360       -0.24250
H          2.06130       -1.97670        0.70620
C          0.14300       -1.94390       -0.39080
H         -0.43370       -1.42150        0.38220
H         -0.07340       -3.01300       -0.27730
H          4.49630       -1.18550       -3.03260
H         -0.22890       -1.62190       -1.36960
