19
Properties=species:S:1:pos:R:3:forces:R:3 energy=-12543.34966921144 stress="0.0 0.0 0.0 0.0 0.0 0.0 0.0 0.0 0.0" pbc="F F F"
C          4.41620       -7.98270       -0.00890
H          4.96350       -7.04470       -0.02360
C          3.02690       -7.98170       -0.00180
H          2.48830       -7.03670       -0.00500
C          2.32370       -9.18500        0.00470
H          1.23680       -9.18010        0.00840
C          3.01660      -10.39230        0.00270
H          2.47310      -11.33320        0.00310
C          4.40670      -10.39500        0.00100
H          4.94790      -11.33860       -0.00830
C          5.12010       -9.19320        0.00480
C          7.49630      -10.11260        0.48810
H          7.27570      -11.05040        0.98160
C          8.78790       -9.54750        0.24220
H          9.75050       -9.97380        0.48850
C          8.56350       -8.35800       -0.36640
H          9.21150       -7.57980       -0.74250
O          7.23280       -8.13760       -0.50890
C          6.58650       -9.22420       -0.00230
