19
Properties=species:S:1:pos:R:3:forces:R:3 energy=-11976.99968379547 stress="0.0 0.0 0.0 0.0 0.0 0.0 0.0 0.0 0.0" pbc="F F F"
C         -0.13760        0.08880       -1.54950
N         -1.48700        0.13920       -1.13000
H         -1.67550        0.76210       -0.35900
C          0.20750       -0.30930       -2.84120
H         -0.56900       -0.61490       -3.53310
C          1.54580       -0.31670       -3.21940
H          1.80780       -0.62350       -4.22930
C          2.54510        0.05050       -2.32290
H          3.58770        0.03540       -2.62870
C          2.19550        0.43590       -1.03200
H          2.96440        0.72550       -0.32010
C          0.86100        0.46010       -0.64590
H          0.59190        0.76740        0.36270
C         -2.45930       -0.78820       -1.43360
C         -3.76370       -0.57140       -0.68830
H         -3.62630       -0.70310        0.39090
H         -4.14870        0.43950       -0.85890
H         -4.49060       -1.30040       -1.04520
O         -2.29080       -1.68760       -2.23370
