19
Properties=species:S:1:pos:R:3:forces:R:3 energy=-12439.771993295004 stress="0.0 0.0 0.0 0.0 0.0 0.0 0.0 0.0 0.0" pbc="F F F"
C          5.61840      -15.09280        0.02910
H          6.17120      -14.15610        0.05490
C          4.22820      -15.08510        0.03890
H          3.69260      -14.13950        0.06370
C          3.52410      -16.28600        0.01430
H          2.43700      -16.28050        0.01790
C          4.21500      -17.49450       -0.00810
H          3.66830      -18.43400       -0.01940
C          5.60570      -17.50400       -0.00910
H          6.15180      -18.44410       -0.00910
C          6.31700      -16.30260       -0.00970
N          8.57150      -16.91190        0.87770
C          9.85510      -16.65260        0.46460
H         10.70580      -17.02590        1.01930
C          9.85710      -15.90660       -0.68060
H         10.65010      -15.51830       -1.30270
N          8.52940      -15.69560       -0.96740
H          8.15400      -15.19530       -1.75780
C          7.79510      -16.30970        0.00580
