19
Properties=species:S:1:pos:R:3:forces:R:3 energy=-12439.696425161384 stress="0.0 0.0 0.0 0.0 0.0 0.0 0.0 0.0 0.0" pbc="F F F"
C          5.60270      -15.07840        0.00100
H          6.14910      -14.13820       -0.00260
C          4.21180      -15.08720        0.00030
H          3.66590      -14.14720       -0.00150
C          3.52200      -16.29600        0.00170
H          2.43460      -16.30230        0.00140
C          4.22570      -17.49680        0.00220
H          3.69070      -18.44310        0.00190
C          5.61660      -17.48950        0.00290
H          6.17380      -18.42330        0.00090
C          6.31420      -16.27990        0.00410
N          8.57800      -16.26620       -1.04330
C          9.86030      -16.25910       -0.54910
H         10.71460      -16.25380       -1.21400
C          9.85570      -16.25990        0.81670
H         10.64320      -16.25570        1.55680
N          8.52590      -16.26780        1.16770
H          8.15500      -16.27030        2.10530
C          7.79690      -16.27140        0.01190
