12
Properties=species:S:1:pos:R:3:forces:R:3 energy=-6760.795930355981 stress="0.0 0.0 0.0 0.0 0.0 0.0 0.0 0.0 0.0" pbc="F F F"
C         -0.34720       -3.41720        2.65410
H         -0.64400       -2.41930        2.98160
H          0.27920       -3.86320        3.43950
H         -1.25600       -4.01890        2.55480
N          0.33120       -3.29840        1.38220
H          0.74400       -2.41240        1.12610
C          0.72970       -4.33160        0.58070
C          0.22570       -5.71040        0.95890
H         -0.86690       -5.76290        0.89390
H          0.51300       -5.98310        1.97970
H          0.65430       -6.42870        0.26030
O          1.43610       -4.13710       -0.39420
