14
Properties=species:S:1:pos:R:3:forces:R:3 energy=-7010.085705954142 stress="0.0 0.0 0.0 0.0 0.0 0.0 0.0 0.0 0.0" pbc="F F F"
C          0.03290       -0.03440       -0.02650
H          0.03560       -0.72410       -0.87890
H          0.05260       -0.64980        0.88340
C         -1.23780        0.81500       -0.01580
H         -1.24650        1.45810       -0.90570
H         -1.21030        1.48840        0.85150
C         -2.50870       -0.02720        0.02960
H         -2.57150       -0.69000       -0.84150
H         -3.40630        0.59970        0.03800
H         -2.53260       -0.65760        0.92670
C          1.31160        0.78600       -0.08090
H          2.14260        0.25610        0.40020
H          1.19100        1.75910        0.41260
F          1.67570        1.00720       -1.40390
