19
Properties=species:S:1:pos:R:3:forces:R:3 energy=-12543.379856801537 stress="0.0 0.0 0.0 0.0 0.0 0.0 0.0 0.0 0.0" pbc="F F F"
C          4.40130      -10.40190       -0.00330
H          4.93070      -11.35150       -0.00740
C          3.01150      -10.39110       -0.00820
H          2.46430      -11.33000       -0.01620
C          2.32390       -9.18100       -0.00300
H          1.23720       -9.17050       -0.00680
C          3.03390       -7.98160        0.00730
H          2.50080       -7.03350        0.01150
C          4.42310       -7.98940        0.01230
H          4.97360       -7.05350        0.02030
C          5.12160       -9.20390        0.00710
C          7.51210      -10.23190        0.00910
H          7.32020      -11.29690        0.00160
C          8.79450       -9.59830        0.01790
H          9.76400      -10.07630        0.01830
C          8.55350       -8.26550        0.02550
H          9.19280       -7.39460        0.03350
O          7.22070       -8.02230        0.02230
C          6.58700       -9.22980        0.01220
