18
Properties=species:S:1:pos:R:3:forces:R:3 energy=-21768.561865577172 stress="0.0 0.0 0.0 0.0 0.0 0.0 0.0 0.0 0.0" pbc="F F F"
C         21.82640      -21.14960       -0.00410
H         22.39120      -20.22180       -0.02750
C         20.43630      -21.13500        0.00010
H         19.90520      -20.18660       -0.00170
C         19.72640      -22.33310       -0.00130
H         18.63950      -22.32090       -0.00020
C         20.41030      -23.54590       -0.01110
H         19.86040      -24.48290       -0.02030
C         21.80050      -23.56340       -0.00960
H         22.33520      -24.50940       -0.02260
C         22.51670      -22.36420        0.01220
N         24.71020      -21.50680       -0.67720
C         26.04860      -21.76730       -0.52540
H         26.76420      -21.14140       -1.04350
C         26.36370      -22.81100        0.28760
H         27.34270      -23.18620        0.55000
S         24.92440      -23.52270        0.89610
C         23.99510      -22.35400        0.00280
