10
Properties=species:S:1:pos:R:3:forces:R:3 energy=-6263.579671844081 stress="0.0 0.0 0.0 0.0 0.0 0.0 0.0 0.0 0.0" pbc="F F F"
O          0.08560       -2.10430        1.22630
H          0.22960       -1.43080        1.90000
C          0.34270       -3.38380        1.79200
H         -0.49990       -3.72490        2.41210
H          1.25110       -3.35500        2.41110
C          0.56910       -4.32780        0.62130
H         -0.39370       -4.52580        0.12130
H          0.96250       -5.28460        0.97930
O          1.50700       -3.78530       -0.27610
H          1.25490       -2.85410       -0.36950
