16
Properties=species:S:1:pos:R:3:forces:R:3 energy=-20705.16198453718 stress="0.0 0.0 0.0 0.0 0.0 0.0 0.0 0.0 0.0" pbc="F F F"
C         28.80790       -4.09730        1.06280
N         29.44220       -4.72240       -0.00030
H         28.91120       -4.69620       -0.86380
C         31.06810       -6.59200       -0.04160
H         30.32070       -7.37490       -0.09230
C         32.47450       -6.81440        0.00790
H         32.93130       -7.79900       -0.00430
C         33.18530       -5.65570        0.06640
H         34.25930       -5.53030        0.10910
S         32.16550       -4.26880        0.05420
C         30.73430       -5.27010        0.00880
O         27.73250       -3.56130        0.88920
C         29.50790       -4.13320        2.39980
H         30.17690       -4.99260        2.50030
H         28.74890       -4.14340        3.18460
H         30.10020       -3.21930        2.51860
