18
Properties=species:S:1:pos:R:3:forces:R:3 energy=-6415.980097039521 stress="0.0 0.0 0.0 0.0 0.0 0.0 0.0 0.0 0.0" pbc="F F F"
C          4.73830       -0.38840       -1.92190
H          5.74610       -0.18990       -1.54440
H          4.38230        0.52000       -2.41850
C          3.81130       -0.79660       -0.78240
H          3.80280        0.01510       -0.03810
H          4.22950       -1.66840       -0.25880
C          2.36690       -1.10210       -1.15730
C          1.88410       -0.68900       -2.52680
H          1.92750        0.40090       -2.64410
H          0.85710       -1.00110       -2.72400
H          2.51500       -1.11990       -3.31130
C          1.58910       -1.65530       -0.22360
H          2.05950       -1.90390        0.73200
C          0.13170       -1.99230       -0.31030
H         -0.43810       -1.44260        0.44910
H         -0.02990       -3.05860       -0.11140
H          4.81420       -1.17680       -2.67920
H         -0.30620       -1.76390       -1.28410
