18
Properties=species:S:1:pos:R:3:forces:R:3 energy=-6416.087584574381 stress="0.0 0.0 0.0 0.0 0.0 0.0 0.0 0.0 0.0" pbc="F F F"
C          4.76340       -1.62390       -1.84950
H          5.81230       -1.44050       -1.59440
H          4.60810       -1.28770       -2.88010
C          3.83120       -0.89350       -0.87810
H          4.04060        0.18440       -0.93780
H          4.05610       -1.19750        0.15220
C          2.36230       -1.12340       -1.15730
C          1.88360       -0.69510       -2.52430
H          2.31070        0.27940       -2.79230
H          0.79550       -0.60990       -2.58600
H          2.20410       -1.40680       -3.29630
C          1.58530       -1.68170       -0.22550
H          2.06350       -1.96860        0.71410
C          0.11660       -1.97690       -0.31050
H         -0.42410       -1.49980        0.51560
H         -0.07040       -3.05460       -0.22880
H          4.59260       -2.70550       -1.81840
H         -0.33180       -1.63280       -1.24460
