19
Properties=species:S:1:pos:R:3:forces:R:3 energy=-21331.97053641542 stress="0.0 0.0 0.0 0.0 0.0 0.0 0.0 0.0 0.0" pbc="F F F"
C         21.76850      -10.94210       -0.00330
H         22.30080      -11.88940       -0.01400
C         20.37850      -10.92500       -0.00070
H         19.83010      -11.86320       -0.00010
C         19.69110       -9.71390        0.00250
H         18.60420       -9.70390        0.00690
C         20.40070       -8.51680        0.00110
H         19.87100       -7.56780        0.00480
C         21.79130       -8.53270       -0.00820
H         22.34250       -7.59530       -0.00120
C         22.49070       -9.74350       -0.01090
C         24.80210       -8.90590       -0.70480
H         24.42960       -8.13380       -1.36940
C         26.18470       -9.18710       -0.49150
H         26.99650       -8.63610       -0.95370
C         26.37410      -10.23080        0.36250
H         27.30950      -10.65400        0.70400
S         24.88070      -10.88930        0.90580
C         23.96860       -9.73800       -0.01160
