19
Properties=species:S:1:pos:R:3:forces:R:3 energy=-12882.585046741382 stress="0.0 0.0 0.0 0.0 0.0 0.0 0.0 0.0 0.0" pbc="F F F"
C         26.52330      -10.40840        1.20050
N         27.27140      -10.61990        0.05220
H         26.71960      -10.60390       -0.79710
N         28.65960      -12.59830        0.01720
C         30.01560      -12.78260       -0.02230
H         30.44370      -13.77710       -0.03190
C         30.66610      -11.58480       -0.05300
H         31.71520      -11.32560       -0.08950
N         29.68260      -10.62260       -0.03650
C         28.49600      -11.29670        0.01650
O         25.37210      -10.03330        1.11700
C         27.23990      -10.65590        2.50790
H         28.19180      -10.11770        2.54000
H         27.46560      -11.72060        2.62040
H         26.59310      -10.32690        3.32190
C         29.90610       -9.19160       -0.01980
H         30.14890       -8.83030        0.98770
H         29.01300       -8.67690       -0.37640
H         30.73750       -8.95340       -0.68820
