18
Properties=species:S:1:pos:R:3:forces:R:3 energy=-21768.24283530413 stress="0.0 0.0 0.0 0.0 0.0 0.0 0.0 0.0 0.0" pbc="F F F"
C         30.19940       -8.38120        0.00700
H         30.78300       -7.46540        0.01990
C         28.81070       -8.34830        0.01880
H         28.27990       -7.40040        0.03800
C         28.11600       -9.55060        0.00100
H         27.03020       -9.57820        0.00590
C         28.84910      -10.73330       -0.02480
H         28.34340      -11.69640       -0.04170
N         30.18020      -10.78420       -0.02900
C         30.84300       -9.62060       -0.00680
C         33.13280       -9.12000       -1.00220
H         32.73890       -8.53480       -1.82620
C         34.51500       -9.40010       -0.78790
H         35.31750       -9.04620       -1.42640
C         34.71600      -10.17150        0.31750
H         35.65400      -10.53340        0.71790
S         33.23840      -10.57760        1.10090
C         32.32280       -9.67130       -0.05090
