18
Properties=species:S:1:pos:R:3:forces:R:3 energy=-21768.351547536455 stress="0.0 0.0 0.0 0.0 0.0 0.0 0.0 0.0 0.0" pbc="F F F"
C         30.18070       -8.35540       -0.00840
H         30.74050       -7.42510       -0.02850
C         28.79210       -8.35190       -0.00470
H         28.24420       -7.41330       -0.00560
C         28.11830       -9.56690        0.00330
H         27.03340       -9.61340        0.01030
C         28.87380      -10.73600       -0.00240
H         28.38790      -11.70960       -0.00090
N         30.20340      -10.75700       -0.01520
C         30.85000       -9.58170       -0.00660
C         33.20380       -8.74540        0.56140
H         32.89390       -7.83600        1.06580
C         34.56340       -9.15300        0.41480
H         35.41410       -8.58010        0.76830
C         34.67610      -10.35380       -0.22240
H         35.58150      -10.89430       -0.46580
S         33.14400      -11.01310       -0.63410
C         32.32290       -9.63880        0.01410
