20
Properties=species:S:1:pos:R:3:forces:R:3 energy=-13476.38726256481 stress="0.0 0.0 0.0 0.0 0.0 0.0 0.0 0.0 0.0" pbc="F F F"
C         12.95170      -24.06670       -0.42450
H         13.49090      -23.20140       -0.79800
C         11.56530      -24.10950       -0.40590
H         10.98430      -23.25910       -0.75300
C         10.93420      -25.26180        0.05070
H          9.85190      -25.34350        0.07560
C         11.72990      -26.31920        0.47740
H         11.27720      -27.23960        0.84200
N         13.06260      -26.28590        0.48570
C         13.66020      -25.17610        0.04190
C         17.25960      -25.81660        0.96230
H         17.85060      -26.28420        1.74540
C         15.87450      -25.80900        1.03810
H         15.34560      -26.27930        1.86170
C         15.15330      -25.18670        0.01700
N         15.73680      -24.61630       -1.04130
C         17.06780      -24.65060       -1.10990
H         17.50870      -24.18000       -1.98690
C         17.87590      -25.22880       -0.13740
H         18.95640      -25.21820       -0.24320
