19
Properties=species:S:1:pos:R:3:forces:R:3 energy=-12543.247369662467 stress="0.0 0.0 0.0 0.0 0.0 0.0 0.0 0.0 0.0" pbc="F F F"
C          4.41480      -10.38690       -0.00730
H          4.96340      -11.32580       -0.01200
C          3.02350      -10.39230       -0.00000
H          2.48450      -11.33590        0.00250
C          2.32390       -9.18950        0.01060
H          1.23670       -9.19160        0.02000
C          3.01830       -7.98180        0.01270
H          2.47400       -7.04030        0.02560
C          4.40800       -7.97670       -0.00260
H          4.95410       -7.03690       -0.00730
C          5.11870       -9.18130       -0.02900
C          7.46570       -9.75640        0.90520
H          7.20410      -10.39260        1.74010
C          8.77300       -9.33490        0.50110
H          9.71760       -9.58900        0.96240
C          8.58590       -8.54510       -0.58460
H          9.25180       -8.00090       -1.23830
O          7.26530       -8.43670       -0.87710
C          6.58940       -9.20260        0.02420
