13
Properties=species:S:1:pos:R:3:forces:R:3 energy=-18603.36820786053 stress="0.0 0.0 0.0 0.0 0.0 0.0 0.0 0.0 0.0" pbc="F F F"
C         -1.13320       -1.39640       -0.61310
H         -0.90380       -0.77480        0.25370
H         -0.44030       -1.19800       -1.43340
H         -2.16270       -1.23410       -0.93580
S         -0.99760       -3.10920       -0.15200
O         -1.83600       -3.31700        1.01920
N          0.61080       -3.25010        0.26140
H          0.99610       -4.02250       -0.27140
O         -1.16800       -3.91150       -1.35220
C          0.97150       -3.22510        1.67780
H          0.78420       -2.22840        2.08590
H          0.41740       -3.96030        2.27240
H          2.04200       -3.42980        1.74580
