15
Properties=species:S:1:pos:R:3:forces:R:3 energy=-7830.474693643382 stress="0.0 0.0 0.0 0.0 0.0 0.0 0.0 0.0 0.0" pbc="F F F"
C          2.45970       -0.81250        0.62260
H          3.54340       -0.66850        0.57570
H          1.99960       -0.10390       -0.07580
H          2.12910       -0.56670        1.63710
C          2.09000       -2.24310        0.26580
H          2.46190       -2.50430       -0.73390
H          2.54130       -2.95670        0.96030
N          0.64990       -2.42560        0.32460
H          0.05870       -1.61900        0.19450
C          0.11120       -3.67270        0.24160
C         -1.40240       -3.73450        0.18360
H         -1.70080       -4.19080       -0.76480
H         -1.75250       -4.38860        0.98650
H         -1.88960       -2.75980        0.27920
O          0.80380       -4.67820        0.22800
