23
Properties=species:S:1:pos:R:3:forces:R:3 energy=-24888.61494362812 stress="0.0 0.0 0.0 0.0 0.0 0.0 0.0 0.0 0.0" pbc="F F F"
C          4.17410       -1.57980       -0.52510
H          5.08490       -1.01210       -0.35520
C          2.94130       -0.93860       -0.48350
H          2.87130        0.12450       -0.27080
C          1.77350       -1.66440       -0.70470
S          0.27830       -0.68670       -0.68160
N         -0.96500       -1.77220       -0.68680
C         -1.20600       -2.53260        0.52760
H         -1.12140       -1.85830        1.38210
H         -0.50490       -3.36840        0.65810
H         -2.22540       -2.92620        0.49280
C         -1.39820       -2.31650       -1.96220
H         -1.43940       -1.50550       -2.69120
H         -2.40310       -2.72790       -1.83510
H         -0.73700       -3.10570       -2.34530
C          1.83140       -3.03500       -0.95140
H          0.93450       -3.62910       -1.10490
C          3.07010       -3.66880       -0.99290
H          3.11530       -4.73540       -1.18940
C          4.24140       -2.94620       -0.78200
H          5.20490       -3.44830       -0.81550
O          0.19720        0.05690       -1.93030
O          0.24840        0.00870        0.59680
