18
Properties=species:S:1:pos:R:3:forces:R:3 energy=-12979.59954106748 stress="0.0 0.0 0.0 0.0 0.0 0.0 0.0 0.0 0.0" pbc="F F F"
C         12.73640       -7.68310       -0.00420
H         13.30480       -6.75690       -0.01220
C         11.34900       -7.67040        0.00510
H         10.80500       -6.72980        0.01390
C         10.67040       -8.88260        0.00600
H          9.58550       -8.92650        0.01640
C         11.42290      -10.05530       -0.00650
H         10.93170      -11.02700       -0.00500
N         12.75240      -10.08540       -0.02390
C         13.39840       -8.91340       -0.02200
C         15.79350       -8.08460        0.51350
H         15.59550       -7.14650        1.01560
C         17.06900       -8.68490        0.27540
H         18.04270       -8.29450        0.53840
C         16.81290       -9.85880       -0.35280
H         17.43880      -10.65530       -0.72770
O         15.48250      -10.03800       -0.51610
C         14.86800       -8.94400       -0.00000
