11
Properties=species:S:1:pos:R:3:forces:R:3 energy=-7301.331224678599 stress="0.0 0.0 0.0 0.0 0.0 0.0 0.0 0.0 0.0" pbc="F F F"
C          1.05600       -2.14530        1.27140
H          0.75790       -1.52750        2.11870
H          2.14420       -2.24680        1.23390
O          0.43820       -3.41520        1.48370
C          0.70700       -4.34150        0.54240
H          0.71180       -1.70240        0.33320
C          0.21890       -5.70090        0.97320
H         -0.85400       -5.66490        1.18550
H          0.41830       -6.42500        0.18390
O          1.28660       -4.08850       -0.48580
H          0.73010       -6.00560        1.89180
