14
Properties=species:S:1:pos:R:3:forces:R:3 energy=-10410.19578580221 stress="0.0 0.0 0.0 0.0 0.0 0.0 0.0 0.0 0.0" pbc="F F F"
O          4.55200       -3.14820       -0.53690
C          3.56710       -5.09720        0.44230
H          3.51600       -6.06510       -0.06960
H          2.63430       -4.55310        0.28510
H          3.70330       -5.29990        1.51020
C          4.71250       -4.26490       -0.09240
C          6.52720       -6.14100        0.00340
H          5.92340       -7.04020        0.01090
C          7.95310       -6.05550        0.00880
H          8.66420       -6.86930        0.01600
C          8.24100       -4.72820       -0.00060
H          9.16850       -4.17260       -0.00490
O          7.11520       -3.98910       -0.01620
C          6.06800       -4.85680        0.01350
