21
Properties=species:S:1:pos:R:3:forces:R:3 energy=-13040.014796776075 stress="0.0 0.0 0.0 0.0 0.0 0.0 0.0 0.0 0.0" pbc="F F F"
C         21.82720      -19.59470        0.00020
H         22.38080      -18.66070        0.01560
C         20.43780      -19.59750        0.00950
H         19.89760      -18.65410        0.02030
C         19.73960      -20.80230        0.01290
H         18.65300      -20.80280        0.02330
C         20.43980      -22.00520        0.00920
H         19.90360      -22.95070        0.01650
C         21.83010      -22.00220       -0.01090
H         22.36560      -22.94880        0.00150
C         22.53750      -20.79750       -0.02520
C         26.14580      -21.75510       -0.63780
H         26.73260      -22.54100       -1.10640
C         24.75920      -21.80390       -0.66830
H         24.24830      -22.61270       -1.18320
C         24.02830      -20.78300       -0.05180
N         24.62470      -19.73820        0.53560
C         25.95580      -19.71540        0.57560
H         26.39840      -18.85830        1.08050
C         26.76640      -20.69270        0.00820
H         27.84740      -20.61430        0.06640
