18
Properties=species:S:1:pos:R:3:forces:R:3 energy=-12876.412680404126 stress="0.0 0.0 0.0 0.0 0.0 0.0 0.0 0.0 0.0" pbc="F F F"
C         13.90410      -15.01470       -0.00930
H         14.45550      -14.07850       -0.03140
C         12.51720      -15.06020       -0.01230
H         11.93590      -14.14220       -0.02360
C         11.88460      -16.29930       -0.00650
H         10.80200      -16.38090       -0.01170
C         12.67460      -17.44500        0.00300
H         12.21640      -18.43320        0.00630
N         14.00630      -17.42040        0.01500
C         14.60350      -16.22120        0.01260
N         16.88750      -15.27420       -0.37820
C         18.14300      -15.81820       -0.29440
H         19.02610      -15.23930       -0.53170
C         18.08160      -17.12700        0.10760
H         18.84390      -17.87210        0.28140
N         16.74810      -17.38590        0.27650
H         16.28830      -18.25730        0.49630
C         16.07440      -16.24340       -0.01390
