18
Properties=species:S:1:pos:R:3:forces:R:3 energy=-21768.282190044276 stress="0.0 0.0 0.0 0.0 0.0 0.0 0.0 0.0 0.0" pbc="F F F"
C         30.19100       -8.37070       -0.00650
H         30.76540       -7.44900       -0.01990
C         28.80230       -8.34930       -0.01910
H         28.26460       -7.40530       -0.03630
C         28.11620       -9.55710       -0.00400
H         27.03070       -9.59240       -0.00860
C         28.85840      -10.73440        0.01690
H         28.36060      -11.70170        0.02950
N         30.18930      -10.77350        0.01910
C         30.84490       -9.60520        0.00750
C         33.15230       -8.96460        0.89020
H         32.78360       -8.24590        1.61440
C         34.52730       -9.29800        0.70790
H         35.34370       -8.85260        1.26630
C         34.70200      -10.24930       -0.25270
H         35.63000      -10.68640       -0.59750
S         33.20790      -10.76410       -0.93210
C         32.32200       -9.65520        0.05230
