11
Properties=species:S:1:pos:R:3:forces:R:3 energy=-7300.783248033415 stress="0.0 0.0 0.0 0.0 0.0 0.0 0.0 0.0 0.0" pbc="F F F"
C         -0.78030       -2.58890        0.89260
H         -0.92850       -1.77390        1.60310
H         -1.69560       -3.19540        0.83760
O          0.32270       -3.34490        1.38010
C          0.73510       -4.35470        0.54160
H         -0.55620       -2.17860       -0.09880
C          0.21700       -5.70490        0.96140
H          0.41860       -5.87050        2.02320
H          0.68790       -6.47860        0.35470
O          1.40190       -4.14400       -0.43510
H         -0.86920       -5.74290        0.81670
