18
Properties=species:S:1:pos:R:3:forces:R:3 energy=-6416.087584476179 stress="0.0 0.0 0.0 0.0 0.0 0.0 0.0 0.0 0.0" pbc="F F F"
C          4.21350        0.63150       -0.94880
H          5.27420        0.76640       -0.71300
H          4.04320        1.02930       -1.95470
C          3.81960       -0.84590       -0.85910
H          4.43030       -1.41370       -1.57600
H          4.06560       -1.23640        0.13670
C          2.35740       -1.10330       -1.14920
C          1.87830       -0.67350       -2.51570
H          2.61080       -0.95150       -3.28390
H          0.92060       -1.12300       -2.79090
H          1.75960        0.41660       -2.56800
C          1.58170       -1.66700       -0.21970
H          2.04860       -1.90760        0.73850
C          0.12460       -2.00980       -0.32360
H         -0.04050       -3.07310       -0.11270
H         -0.46220       -1.44760        0.41300
H          3.63160        1.23580       -0.24430
H         -0.29160       -1.79750       -1.31040
