22
Properties=species:S:1:pos:R:3:forces:R:3 energy=-13509.256901295828 stress="0.0 0.0 0.0 0.0 0.0 0.0 0.0 0.0 0.0" pbc="F F F"
C         21.64490      -17.43450       -0.40740
H         22.26780      -18.20590       -0.85290
C         20.26820      -17.43990       -0.59160
H         19.80600      -18.23290       -1.17380
C         19.48340      -16.43100       -0.03980
H         18.40670      -16.43450       -0.18610
C         20.08820      -15.41160        0.68960
H         19.48870      -14.61190        1.11510
C         21.46450      -15.41150        0.88340
H         21.92240      -14.59280        1.43030
C         22.25710      -16.43390        0.35160
N         24.53380      -17.03400       -0.36190
C         25.79640      -16.84670        0.12930
H         26.67170      -17.18600       -0.41010
C         25.74660      -16.21250        1.33720
H         26.51080      -15.90070        2.03420
N         24.41400      -15.99500        1.59690
C         23.72140      -16.48890        0.52260
C         23.90820      -15.46220        2.84850
H         24.62540      -15.69050        3.64020
H         22.95720      -15.93800        3.09870
H         23.77560      -14.37540        2.80650
