18
Properties=species:S:1:pos:R:3:forces:R:3 energy=-12876.280637883943 stress="0.0 0.0 0.0 0.0 0.0 0.0 0.0 0.0 0.0" pbc="F F F"
C         13.90790      -15.02580       -0.01150
H         14.46320      -14.09200        0.00570
C         12.52070      -15.05960       -0.03720
H         11.94680      -14.13720       -0.06350
C         11.87910      -16.29360       -0.01860
H         10.79600      -16.36820       -0.03230
C         12.66190      -17.44360        0.02410
H         12.19790      -18.42870        0.04360
N         13.99420      -17.42940        0.03450
C         14.60070      -16.23620        0.00740
N         16.85100      -15.43190        0.75870
C         18.11660      -15.94130        0.61390
H         18.97360      -15.45400        1.05970
C         18.09650      -17.09090       -0.13050
H         18.87630      -17.76740       -0.44860
N         16.77830      -17.28460       -0.45110
H         16.34960      -18.08710       -0.88850
C         16.07440      -16.25350        0.08630
