19
Properties=species:S:1:pos:R:3:forces:R:3 energy=-12882.605162004957 stress="0.0 0.0 0.0 0.0 0.0 0.0 0.0 0.0 0.0" pbc="F F F"
C         26.78220      -10.22030       -1.30410
N         27.27230      -10.64480       -0.07510
H         26.57820      -10.96610        0.58580
N         28.68180      -12.62890       -0.07900
C         30.04480      -12.79720       -0.02550
H         30.49100      -13.78260       -0.05790
C         30.67410      -11.58960        0.05920
H         31.71790      -11.30810        0.11380
N         29.67230      -10.64610        0.06900
C         28.50190      -11.33530       -0.00500
O         27.50740      -10.07820       -2.26730
C         25.30200       -9.89800       -1.31720
H         24.70080      -10.80670       -1.20150
H         25.04270       -9.21360       -0.50310
H         25.06010       -9.43440       -2.27310
C         29.82970       -9.20710        0.00110
H         30.87730       -8.96640        0.19520
H         29.54560       -8.83170       -0.98620
H         29.20780       -8.72520        0.75930
