16
Properties=species:S:1:pos:R:3:forces:R:3 energy=-9433.45367074846 stress="0.0 0.0 0.0 0.0 0.0 0.0 0.0 0.0 0.0" pbc="F F F"
C         -2.11770        1.07190       -0.83970
H         -2.65230        1.85410       -0.30640
C         -2.82370        0.03210       -1.44290
H         -3.90820       -0.00130       -1.38380
C         -2.12580       -0.96210       -2.11620
H         -2.66300       -1.78390       -2.58480
C         -0.73450       -0.92960       -2.19380
H         -0.20040       -1.72160       -2.71040
C         -0.03860        0.12420       -1.60290
C         -0.73360        1.12100       -0.91420
H         -0.16440        1.92630       -0.45850
O          1.31790        0.26130       -1.66080
C          2.08680       -0.92160       -1.73170
H          3.11690       -0.62790       -1.52190
H          2.04270       -1.37330       -2.73200
H          1.75720       -1.66140       -0.99120
