14
Properties=species:S:1:pos:R:3:forces:R:3 energy=-8266.86697177725 stress="0.0 0.0 0.0 0.0 0.0 0.0 0.0 0.0 0.0" pbc="F F F"
C          1.27040       -2.80100       -1.06750
H          2.08740       -2.13750       -1.36090
H          0.31370       -2.27880       -1.19900
H          1.27070       -3.67310       -1.72250
N          1.49250       -3.24770        0.29860
H          1.66500       -2.50380        0.96160
C          0.68520       -4.26950        0.77240
N          0.63380       -4.35000        2.15320
H          1.45200       -4.01400        2.64200
C         -0.01070       -5.51420        2.73600
H         -1.00050       -5.62800        2.29190
H         -0.12130       -5.35650        3.81140
H          0.54600       -6.44330        2.55930
O          0.05710       -5.01510        0.03910
