19
Properties=species:S:1:pos:R:3:forces:R:3 energy=-11976.94680319305 stress="0.0 0.0 0.0 0.0 0.0 0.0 0.0 0.0 0.0" pbc="F F F"
C         -0.13350        0.16370       -1.56790
N         -1.48790        0.16960       -1.13990
H         -1.63580        0.05350       -0.14840
C          0.85790        0.68890       -0.73670
H          0.58520        1.14980        0.21040
C          2.19160        0.63780       -1.12660
H          2.95490        1.06030       -0.47800
C          2.54820        0.04070       -2.33210
H          3.59130       -0.00440       -2.63390
C          1.55890       -0.50150       -3.14740
H          1.82820       -0.97190       -4.09000
C          0.22100       -0.44210       -2.77220
H         -0.55580       -0.84890       -3.41220
C         -2.50930        0.74800       -1.86450
C         -3.82080        0.85840       -1.10890
H         -4.11080       -0.10600       -0.67910
H         -3.74010        1.58310       -0.29080
H         -4.59180        1.19430       -1.80190
O         -2.36740        1.11770       -3.01330
