19
Properties=species:S:1:pos:R:3:forces:R:3 energy=-11977.039024467516 stress="0.0 0.0 0.0 0.0 0.0 0.0 0.0 0.0 0.0" pbc="F F F"
C         -0.14360        0.05900       -1.55710
N         -1.47620        0.07180       -1.09730
H         -1.59140        0.37960       -0.14370
C          0.85160        0.46530       -0.66150
H          0.58060        0.77460        0.34620
C          2.18450        0.47630       -1.05030
H          2.94650        0.79450       -0.34320
C          2.54160        0.08260       -2.33670
H          3.58290        0.08940       -2.64630
C          1.54820       -0.32040       -3.22330
H          1.81420       -0.63040       -4.23140
C          0.20860       -0.33710       -2.84930
H         -0.56330       -0.65080       -3.53970
C         -2.62280       -0.27620       -1.77160
C         -3.87880       -0.12750       -0.93070
H         -4.00920        0.90860       -0.60020
H         -3.83170       -0.76250       -0.03950
H         -4.73570       -0.42150       -1.53570
O         -2.64310       -0.66520       -2.92420
