16
Properties=species:S:1:pos:R:3:forces:R:3 energy=-11813.137700341116 stress="0.0 0.0 0.0 0.0 0.0 0.0 0.0 0.0 0.0" pbc="F F F"
C         12.17600      -11.14800       -0.22470
N         13.48430      -10.72990       -0.00620
H         13.53730       -9.74550        0.21740
N         14.81790      -12.72840       -0.32180
C         16.17910      -12.95110       -0.24060
H         16.59850      -13.93100       -0.41780
C         16.84310      -11.81050        0.07640
H         17.88990      -11.59420        0.22500
N         15.85550      -10.84330        0.19630
H         15.99480       -9.87370        0.42500
C         14.66850      -11.45970       -0.05450
O         11.28880      -10.32400       -0.12690
C         11.93390      -12.59260       -0.56860
H         12.47380      -12.87100       -1.47620
H         10.86080      -12.72680       -0.70140
H         12.31090      -13.24760        0.21990
