16
Properties=species:S:1:pos:R:3:forces:R:3 energy=-11813.135966199245 stress="0.0 0.0 0.0 0.0 0.0 0.0 0.0 0.0 0.0" pbc="F F F"
C         12.20830      -11.13920       -0.41000
N         13.48330      -10.75840       -0.00640
H         13.50240       -9.81790        0.36380
N         14.84430      -12.73450       -0.34250
C         16.20600      -12.94480       -0.24040
H         16.63840      -13.91820       -0.42290
C         16.85320      -11.80150        0.10080
H         17.89510      -11.57710        0.27030
N         15.85330      -10.84740        0.22380
H         15.98500       -9.86640        0.40350
C         14.67770      -11.47100       -0.06060
O         11.30460      -10.33720       -0.28480
C         12.02170      -12.52070       -0.97610
H         12.65840      -12.67020       -1.85090
H         10.97110      -12.63150       -1.24260
H         12.32130      -13.28070       -0.25120
