22
Properties=species:S:1:pos:R:3:forces:R:3 energy=-12603.542619288513 stress="0.0 0.0 0.0 0.0 0.0 0.0 0.0 0.0 0.0" pbc="F F F"
C         16.13930      -19.62260        0.15070
H         15.63760      -18.70940        0.45630
C         17.52550      -19.60790        0.05780
H         18.06400      -18.68640        0.26500
C         18.21910      -20.75870       -0.30060
H         19.30270      -20.74780       -0.37570
C         17.50550      -21.92280       -0.56400
H         18.02820      -22.83230       -0.84980
C         16.11960      -21.93580       -0.46530
H         15.59920      -22.85810       -0.70520
C         15.40350      -20.78980       -0.09450
C         11.79330      -21.99870       -0.03130
H         11.26350      -22.94790       -0.05290
C         13.18230      -21.99290       -0.06460
H         13.69730      -22.94860       -0.08470
C         13.90840      -20.79500       -0.02570
C         13.17710      -19.60050        0.01960
H         13.68600      -18.64130        0.01190
C         11.78800      -19.60310        0.04780
H         11.25380      -18.65690        0.08760
C         11.08560      -20.80300        0.02510
H          9.99960      -20.80620        0.04890
