18
Properties=species:S:1:pos:R:3:forces:R:3 energy=-8899.634963470842 stress="0.0 0.0 0.0 0.0 0.0 0.0 0.0 0.0 0.0" pbc="F F F"
C          2.56280       -3.20880        1.90720
H          3.57990       -2.91210        2.18510
H          2.57530       -4.23910        1.55670
H          1.93640       -3.15140        2.80390
C          2.05860       -2.26460        0.81890
H          2.17450       -1.22680        1.14960
H          2.68720       -2.38300       -0.07580
N          0.65040       -2.42100        0.43230
C         -0.16380       -1.22140        0.36660
H         -0.93760       -1.32290       -0.39800
H          0.46630       -0.37480        0.08290
H         -0.65210       -0.98300        1.32320
C          0.09600       -3.66930        0.32040
C         -1.41770       -3.73220        0.21860
H         -1.74880       -3.39510       -0.77080
H         -1.91550       -3.11620        0.97260
H         -1.71630       -4.77320        0.34160
O          0.76750       -4.68970        0.26110
