10
Properties=species:S:1:pos:R:3:forces:R:3 energy=-6263.376429039687 stress="0.0 0.0 0.0 0.0 0.0 0.0 0.0 0.0 0.0" pbc="F F F"
O          0.16850       -5.61970        1.07700
H          0.23840       -6.22710        0.33170
C          0.60860       -4.34530        0.64420
H          1.66870       -4.35680        0.34600
H          0.01990       -3.99080       -0.21350
C          0.39400       -3.36590        1.78760
H         -0.46930       -3.71720        2.36990
H          1.27150       -3.35880        2.45310
O          0.14850       -2.08990        1.22480
H         -0.05650       -1.48230        1.94440
