14
Properties=species:S:1:pos:R:3:forces:R:3 energy=-10306.45925485894 stress="0.0 0.0 0.0 0.0 0.0 0.0 0.0 0.0 0.0" pbc="F F F"
O          4.93440      -11.43690       -0.79530
C          5.33380      -10.53940        1.39080
H          5.93840       -9.63690        1.54310
H          4.27650      -10.27090        1.35430
H          5.52710      -11.19930        2.24480
C          5.71800      -11.23060        0.10200
N          7.53960      -12.95460        0.01480
C          8.91170      -12.89410       -0.00530
H          9.51120      -13.79520       -0.01030
C          9.34080      -11.59510       -0.01660
H         10.32460      -11.14920       -0.03400
N          8.19370      -10.83900        0.00410
H          8.13910       -9.83210       -0.02950
C          7.14160      -11.70660        0.00610
