15
Properties=species:S:1:pos:R:3:forces:R:3 energy=-7830.492908295635 stress="0.0 0.0 0.0 0.0 0.0 0.0 0.0 0.0 0.0" pbc="F F F"
C          2.50640       -2.61950        2.03430
H          3.58330       -2.45360        2.14510
H          2.29690       -3.67440        2.23180
H          1.98450       -2.01530        2.78400
C          2.05830       -2.25000        0.62080
H          2.59940       -2.86510       -0.10510
H          2.28540       -1.20280        0.40150
N          0.63630       -2.44180        0.38270
H          0.02160       -1.64500        0.41980
C          0.09180       -3.68750        0.31150
C         -1.41770       -3.73150        0.16180
H         -1.86730       -2.75260       -0.03050
H         -1.85500       -4.15020        1.07340
H         -1.66180       -4.40790       -0.66090
O          0.76930       -4.70340        0.35090
