12
Properties=species:S:1:pos:R:3:forces:R:3 energy=-6760.539884542199 stress="0.0 0.0 0.0 0.0 0.0 0.0 0.0 0.0 0.0" pbc="F F F"
C          1.70170       -2.64980        2.06200
H          1.37780       -1.75320        2.59690
H          2.31330       -3.27300        2.73120
H          2.31440       -2.34660        1.20950
N          0.52770       -3.33650        1.53640
H         -0.10200       -3.63010        2.27190
C          0.72540       -4.32530        0.57150
C          0.23450       -5.71230        0.95190
H         -0.76080       -5.68420        1.41060
H          0.20510       -6.32720        0.05170
H          0.92590       -6.16950        1.66960
O          1.34870       -4.10430       -0.44610
