18
Properties=species:S:1:pos:R:3:forces:R:3 energy=-8457.060434063542 stress="0.0 0.0 0.0 0.0 0.0 0.0 0.0 0.0 0.0" pbc="F F F"
C          5.50740      -23.17380       -0.05170
C          6.81410      -22.41350       -0.00890
H          7.61760      -23.04470       -0.40700
C          7.17470      -21.95400        1.40800
H          7.26960      -22.81230        2.08090
H          6.39730      -21.29650        1.81340
H          8.12250      -21.40530        1.41780
H          6.74990      -21.54080       -0.67090
C          5.48420      -24.56910       -0.05630
H          6.42400      -25.11840       -0.06290
C          4.27830      -25.26460       -0.05980
H          4.28160      -26.35240       -0.06590
C          3.07250      -24.57050       -0.05940
H          2.12910      -25.11140       -0.06380
C          3.08160      -23.17840       -0.05240
H          2.14410      -22.62720       -0.05130
C          4.28960      -22.48950       -0.04560
H          4.29300      -21.40030       -0.03250
