18
Properties=species:S:1:pos:R:3:forces:R:3 energy=-8899.749782319072 stress="0.0 0.0 0.0 0.0 0.0 0.0 0.0 0.0 0.0" pbc="F F F"
C          2.45640       -2.97960        2.07840
H          3.52650       -2.83640        2.26340
H          2.24370       -4.04980        2.07320
H          1.90200       -2.51470        2.90190
C          2.08330       -2.35210        0.73620
H          2.36990       -1.29560        0.70820
H          2.63320       -2.86490       -0.06130
N          0.66000       -2.41930        0.39880
C         -0.15330       -1.23270        0.58320
H         -0.98860       -1.23020       -0.12120
H          0.45440       -0.34910        0.37360
H         -0.55910       -1.13770        1.60190
C          0.09860       -3.66630        0.30220
C         -1.41470       -3.73560        0.22180
H         -1.77780       -3.28170       -0.70740
H         -1.89540       -3.22100        1.05920
H         -1.69920       -4.78740        0.23110
O          0.78430       -4.67770        0.24460
