18
Properties=species:S:1:pos:R:3:forces:R:3 energy=-12875.99720122907 stress="0.0 0.0 0.0 0.0 0.0 0.0 0.0 0.0 0.0" pbc="F F F"
C         13.92740      -15.05860       -0.00980
H         14.49300      -14.13120       -0.01470
C         12.53970      -15.05960       -0.05200
H         11.98850      -14.12420       -0.10000
C         11.87330      -16.27800       -0.02820
H         10.78880      -16.33270       -0.05790
C         12.63300      -17.44150        0.03970
H         12.14970      -18.41650        0.06550
N         13.96480      -17.45930        0.07770
C         14.59710      -16.28160        0.04310
N         16.83190      -16.09540        1.16390
C         18.12340      -16.28830        0.73550
H         18.96020      -16.16580        1.41040
C         18.15070      -16.64150       -0.58540
H         18.95570      -16.87580       -1.26690
N         16.83290      -16.66230       -0.97560
H         16.47130      -16.92980       -1.87840
C         16.08320      -16.31400        0.10910
