14
Properties=species:S:1:pos:R:3:forces:R:3 energy=-8266.863137289307 stress="0.0 0.0 0.0 0.0 0.0 0.0 0.0 0.0 0.0" pbc="F F F"
C          2.13040       -2.22140        1.08780
H          2.48750       -1.44590        0.40710
H          3.00240       -2.62050        1.62080
H          1.45960       -1.74860        1.81630
N          1.46100       -3.23450        0.30580
H          1.33500       -3.08190       -0.68170
C          0.65280       -4.23460        0.79170
N          0.65300       -4.38200        2.16130
H          1.44400       -4.01800        2.66950
C         -0.02500       -5.52490        2.74040
H         -0.94210       -5.70090        2.17700
H         -0.28000       -5.30770        3.78080
H          0.57770       -6.44170        2.70070
O         -0.03330       -4.92330        0.04960
