14
Properties=species:S:1:pos:R:3:forces:R:3 energy=-9710.315014851061 stress="0.0 0.0 0.0 0.0 0.0 0.0 0.0 0.0 0.0" pbc="F F F"
C         -0.13070       -0.08350       -0.06930
H         -0.21590        0.44210       -1.02790
H         -0.23460        0.66780        0.72420
C          1.21940       -0.78890        0.05330
H          1.28670       -1.56200       -0.72130
H          1.26210       -1.30780        1.01720
C          2.38840        0.18300       -0.07060
H          2.37180        0.69470       -1.03990
H          3.34970       -0.33280        0.01850
H          2.34630        0.94980        0.71170
C         -1.30430       -1.02900        0.03220
H         -2.26880       -0.51540        0.12190
F         -1.16870       -1.84950        1.11410
F         -1.36410       -1.81800       -1.08250
