14
Properties=species:S:1:pos:R:3:forces:R:3 energy=-12410.574560455554 stress="0.0 0.0 0.0 0.0 0.0 0.0 0.0 0.0 0.0" pbc="F F F"
C         -0.14520       -0.00180        0.20480
H          0.18130       -0.59060       -0.65810
H          0.07300       -0.59230        1.09930
C          0.60430        1.33040        0.23100
H          0.25370        1.92610        1.08250
H          0.35250        1.89950       -0.67040
C          2.11340        1.13310        0.32080
H          2.38420        0.58480        1.23030
H          2.48690        0.56280       -0.53730
H          2.64030        2.09210        0.33950
C         -1.65970        0.13080        0.10280
F         -2.04940        1.39250       -0.17120
F         -2.27600       -0.22810        1.24500
F         -2.15810       -0.64570       -0.87930
