14
Properties=species:S:1:pos:R:3:forces:R:3 energy=-8266.79606368345 stress="0.0 0.0 0.0 0.0 0.0 0.0 0.0 0.0 0.0" pbc="F F F"
C          1.43340       -1.89530        0.86260
H          2.06860       -1.25460        0.24620
H          0.42970       -1.45260        0.91750
H          1.85900       -1.89650        1.87050
N          1.44970       -3.23860        0.29400
H          1.34110       -3.22750       -0.71230
C          0.59000       -4.22390        0.78630
N          0.60730       -4.35860        2.15240
H          1.42180       -3.98900        2.61930
C         -0.00740       -5.52950        2.74710
H          0.61900       -6.42760        2.66610
H         -0.21620       -5.33080        3.80100
H         -0.94620       -5.72590        2.22830
O         -0.07170       -4.93720        0.04950
