17
Properties=species:S:1:pos:R:3:forces:R:3 energy=-8893.02862316686 stress="0.0 0.0 0.0 0.0 0.0 0.0 0.0 0.0 0.0" pbc="F F F"
C          2.18060       -1.08880       -0.11460
H          2.87210       -1.08460        0.72470
C          2.42830       -1.89740       -1.21940
H          3.31310       -2.52750       -1.25290
C          1.52800       -1.89270       -2.28050
H          1.70560       -2.51990       -3.15080
C          0.39780       -1.08380       -2.24290
H         -0.31320       -1.08310       -3.06620
C          0.14820       -0.26470       -1.13900
C          1.04750       -0.28450       -0.06670
H          0.86130        0.33750        0.80760
N         -1.04810        0.49600       -1.08750
H         -1.20830        0.81730       -0.14040
C         -1.15400        1.61130       -2.02150
H         -1.09860        1.24030       -3.05110
H         -0.37420        2.38030       -1.89610
H         -2.13550        2.08080       -1.89800
