18
Properties=species:S:1:pos:R:3:forces:R:3 energy=-6416.016391467068 stress="0.0 0.0 0.0 0.0 0.0 0.0 0.0 0.0 0.0" pbc="F F F"
C          3.48380       -2.08350       -1.86080
H          3.20410       -2.93800       -1.23400
H          4.32770       -2.38350       -2.49030
C          3.83380       -0.86280       -0.99760
H          4.70900       -1.12960       -0.38510
C          2.67630       -0.50290       -0.06540
H          2.41110       -1.35050        0.57630
H          1.78610       -0.23410       -0.64770
H          2.93080        0.34700        0.57680
C          4.22820        0.31600       -1.85470
H          3.41420        0.93620       -2.23900
C          5.47480        0.57350       -2.24410
H          6.28340       -0.04150       -1.84330
C          5.88210        1.66850       -3.18360
H          6.38770        1.25860       -4.06570
H          6.58590        2.35570       -2.70010
H          2.63780       -1.85400       -2.52050
H          5.01890        2.24920       -3.52550
