14
Properties=species:S:1:pos:R:3:forces:R:3 energy=-8266.599506024419 stress="0.0 0.0 0.0 0.0 0.0 0.0 0.0 0.0 0.0" pbc="F F F"
C          0.81550       -2.26000       -0.56680
H          1.57030       -1.64340       -1.06210
H          0.11660       -1.60490       -0.02570
H          0.25910       -2.80750       -1.33150
N          1.48380       -3.23270        0.29110
H          2.02150       -2.77660        1.01690
C          0.68440       -4.27010        0.78150
N          0.60050       -4.34110        2.16110
H          1.36360       -3.93950        2.68760
C         -0.00440       -5.52730        2.74350
H         -0.92980       -5.74230        2.20850
H         -0.23450       -5.33180        3.79330
H          0.64270       -6.41090        2.67010
O          0.02610       -4.98890        0.05140
