18
Properties=species:S:1:pos:R:3:forces:R:3 energy=-10939.121163959866 stress="0.0 0.0 0.0 0.0 0.0 0.0 0.0 0.0 0.0" pbc="F F F"
C         -3.09070        1.25440       -2.36730
H         -4.13220        1.47170       -2.58360
C         -2.07650        2.14390       -2.70670
H         -2.30510        3.08570       -3.20020
C         -0.76530        1.80490       -2.40630
H          0.06020        2.46690       -2.65800
C         -0.51010        0.58350       -1.77430
N         -1.47850       -0.26500       -1.43130
C         -2.73580        0.06950       -1.73530
H         -3.49890       -0.65190       -1.44780
C          0.93530        0.19920       -1.48710
H          1.40700        1.00620       -0.89750
H          1.47980        0.15210       -2.43920
O          1.11310       -1.04220       -0.87370
C          0.91450       -1.02440        0.52110
H          1.13070       -2.03440        0.87830
H         -0.11810       -0.76300        0.78320
H          1.59970       -0.31770        1.01600
