14
Properties=species:S:1:pos:R:3:forces:R:3 energy=-9710.24200513535 stress="0.0 0.0 0.0 0.0 0.0 0.0 0.0 0.0 0.0" pbc="F F F"
C         -0.13050       -0.09050       -0.05860
H         -0.20060        0.39980       -1.03660
H         -0.25000        0.68460        0.70590
C          1.22360       -0.78940        0.05870
H          1.29880       -1.55990       -0.72010
H          1.28120       -1.31330        1.02160
C          2.39170        0.18330       -0.07030
H          2.37270        0.69730       -1.03850
H          3.35410       -0.33150        0.01520
H          2.35150        0.94940        0.71260
C         -1.31160       -1.03160        0.04400
H         -1.11860       -2.03550       -0.35350
F         -2.37710       -0.51390       -0.63670
F         -1.70310       -1.15700        1.34640
