16
Properties=species:S:1:pos:R:3:forces:R:3 energy=-20705.178216011598 stress="0.0 0.0 0.0 0.0 0.0 0.0 0.0 0.0 0.0" pbc="F F F"
C         28.64870       -4.60740        1.16330
N         29.43830       -4.75020        0.03190
H         29.04200       -4.31600       -0.79440
C         31.10560       -6.59510       -0.00500
H         30.38440       -7.40430       -0.02220
C         32.51790       -6.77610        0.01540
H         33.00160       -7.74780        0.02960
C         33.19760       -5.59670        0.01240
H         34.26920       -5.44170        0.02310
S         32.13740       -4.24190       -0.02760
C         30.73570       -5.28120       -0.00810
O         27.55390       -4.09070        1.07250
C         29.22370       -5.11730        2.46290
H         29.00960       -6.18690        2.56710
H         28.73090       -4.59290        3.28310
H         30.30750       -4.98020        2.51860
