18
Properties=species:S:1:pos:R:3:forces:R:3 energy=-6416.073181510282 stress="0.0 0.0 0.0 0.0 0.0 0.0 0.0 0.0 0.0" pbc="F F F"
C          4.71350       -2.00600       -1.53490
H          5.77440       -1.82360       -1.33340
H          4.46360       -3.00170       -1.15340
C          3.84000       -0.92610       -0.88050
H          4.01400       -0.92790        0.20400
H          4.15570        0.05920       -1.24670
C          2.35990       -1.10790       -1.14790
C          1.89010       -0.66580       -2.51170
H          2.46470       -1.15970       -3.30560
H          0.83240       -0.87700       -2.68670
H          2.04020        0.41450       -2.64030
C          1.57960       -1.66570       -0.21700
H          2.03930       -1.89260        0.74770
C          0.12300       -2.01090       -0.31920
H         -0.03540       -3.08290       -0.14820
H         -0.45640       -1.48030        0.44610
H          4.57700       -2.02160       -2.62230
H         -0.30600       -1.76340       -1.29210
