16
Properties=species:S:1:pos:R:3:forces:R:3 energy=-10906.776923711295 stress="0.0 0.0 0.0 0.0 0.0 0.0 0.0 0.0 0.0" pbc="F F F"
C          7.54620      -21.30490        0.19230
H          6.64800      -20.70540        0.30660
C          7.52000      -22.68610        0.33460
H          6.59360      -23.20460        0.56630
C          8.70560      -23.39320        0.18250
H          8.73100      -24.47330        0.29330
C          9.86920      -22.68920       -0.12270
N          9.90630      -21.36060       -0.26380
C          8.76510      -20.69640       -0.10180
H          8.82960      -19.61590       -0.21880
C         11.18780      -23.41600       -0.28990
O         11.98540      -23.07270       -1.13090
C         11.46420      -24.56220        0.66380
H         12.51510      -24.84620        0.57850
H         10.84220      -25.43030        0.41400
H         11.23180      -24.27920        1.69570
