21
Properties=species:S:1:pos:R:3:forces:R:3 energy=-15739.795654498495 stress="0.0 0.0 0.0 0.0 0.0 0.0 0.0 0.0 0.0" pbc="F F F"
C         21.63030      -34.29470       -0.00520
H         22.01760      -35.30330       -0.00590
C         20.26270      -34.06360       -0.00600
H         19.57170      -34.90230       -0.00730
C         19.78830      -32.75900       -0.00500
H         18.72580      -32.53750       -0.00550
C         20.72640      -31.73460       -0.00330
H         20.40830      -30.69330       -0.00250
N         22.04030      -31.93820       -0.00260
C         22.50110      -33.19730       -0.00350
C         26.16080      -32.20100        0.00000
H         26.72800      -31.27400        0.00130
C         24.77390      -32.15830       -0.00090
H         24.25930      -31.20480       -0.00030
C         23.99310      -33.32280       -0.00260
C         24.69640      -34.52930       -0.00330
C         26.07970      -34.60150       -0.00240
H         26.55180      -35.57940       -0.00300
C         26.81860      -33.42610       -0.00070
H         27.90350      -33.46840       -0.00000
F         24.04090      -35.71270       -0.00490
