16
Properties=species:S:1:pos:R:3:forces:R:3 energy=-10906.738572079255 stress="0.0 0.0 0.0 0.0 0.0 0.0 0.0 0.0 0.0" pbc="F F F"
C          7.54130      -21.31120        0.18590
H          6.64050      -20.71480        0.29800
C          7.51620      -22.69390        0.31940
H          6.58920      -23.21530        0.54210
C          8.70520      -23.39660        0.17070
H          8.74010      -24.47860        0.26670
C          9.86690      -22.68540       -0.12320
N          9.90540      -21.35680       -0.25490
C          8.75910      -20.69680       -0.09670
H          8.82120      -19.61580       -0.20680
C         11.19060      -23.40920       -0.28330
O         11.84000      -23.30300       -1.29780
C         11.66410      -24.21410        0.90850
H         10.90790      -24.94180        1.22410
H         11.84340      -23.55210        1.76470
H         12.58660      -24.73470        0.64370
