18
Properties=species:S:1:pos:R:3:forces:R:3 energy=-12413.334036061118 stress="0.0 0.0 0.0 0.0 0.0 0.0 0.0 0.0 0.0" pbc="F F F"
C          7.40990      -26.91850        0.05510
H          6.48970      -26.34490        0.09290
C          7.40600      -28.31180        0.06900
H          6.47190      -28.86560        0.12050
C          8.61240      -28.99000        0.02870
H          8.64640      -30.07680        0.04880
C          9.79630      -28.24550       -0.05190
N          9.81550      -26.91480       -0.06540
C          8.63880      -26.28120       -0.00690
H          8.69340      -25.19440       -0.01790
N         11.04000      -28.91460       -0.02600
H         11.05070      -29.77880        0.50550
C         11.98310      -28.99420       -1.05160
C         12.00660      -27.89160       -2.08000
H         12.11980      -26.91410       -1.60310
H         12.84410      -28.08340       -2.75170
H         11.07450      -27.86360       -2.65190
O         12.77170      -29.91920       -1.05380
