23
Properties=species:S:1:pos:R:3:forces:R:3 energy=-24888.70321521026 stress="0.0 0.0 0.0 0.0 0.0 0.0 0.0 0.0 0.0" pbc="F F F"
C          4.01060       -1.99540       -0.07950
H          4.90060       -1.63290        0.42710
C          2.83720       -1.25090       -0.03360
H          2.77980       -0.31050        0.50780
C          1.70310       -1.73060       -0.68030
S          0.25530       -0.70080       -0.66360
N         -0.97610       -1.84550       -0.71530
C         -1.15770       -2.55910        0.54610
H         -0.25740       -3.13420        0.78140
H         -1.38380       -1.88190        1.37920
H         -1.98080       -3.26760        0.41490
C         -2.22270       -1.32980       -1.28310
H         -2.00270       -0.84650       -2.23580
H         -2.88260       -2.18290       -1.46350
H         -2.72830       -0.61250       -0.62040
C          1.72200       -2.93270       -1.38260
H          0.82400       -3.28840       -1.88230
C          2.90250       -3.66850       -1.42340
H          2.93230       -4.61060       -1.96350
C          4.04320       -3.20310       -0.77310
H          4.96170       -3.78380       -0.80830
O          0.22870       -0.00340        0.61690
O          0.19250        0.06200       -1.90390
