18
Properties=species:S:1:pos:R:3:forces:R:3 energy=-6415.99073161349 stress="0.0 0.0 0.0 0.0 0.0 0.0 0.0 0.0 0.0" pbc="F F F"
C          2.31180       -0.99720       -0.91410
H          2.03040       -1.84340       -0.27820
H          1.90540       -1.17290       -1.91590
C          3.82960       -0.82050       -0.95490
H          4.27750       -1.74210       -1.36070
C          4.39520       -0.63620        0.46160
H          4.13920       -1.49220        1.09570
H          3.98420        0.26820        0.92570
H          5.48590       -0.53870        0.44700
C          4.21970        0.31920       -1.87420
H          3.41960        0.97450       -2.23070
C          5.47000        0.57550       -2.24930
H          6.27320       -0.06130       -1.87040
C          5.88460        1.68010       -3.17410
H          6.37250        1.27680       -4.06940
H          6.60780        2.34700       -2.69000
H          1.83680       -0.09730       -0.50460
H          5.02520        2.27970       -3.49290
