14
Properties=species:S:1:pos:R:3:forces:R:3 energy=-10306.509356428402 stress="0.0 0.0 0.0 0.0 0.0 0.0 0.0 0.0 0.0" pbc="F F F"
O          5.39050      -10.72620       -1.38220
C          4.80950      -11.30910        0.87250
H          4.77270      -12.34460        1.23180
H          3.80890      -10.96620        0.60220
H          5.21420      -10.69810        1.68770
C          5.71770      -11.22490       -0.32900
N          7.53630      -12.95320       -0.12380
C          8.90290      -12.88090        0.01150
H          9.51070      -13.77550        0.04840
C          9.31410      -11.57720        0.07360
H         10.28830      -11.12060        0.17370
N          8.16370      -10.83270       -0.02330
H          8.09930       -9.82680       -0.06720
C          7.12740      -11.71030       -0.12200
