23
Properties=species:S:1:pos:R:3:forces:R:3 energy=-24888.71260021639 stress="0.0 0.0 0.0 0.0 0.0 0.0 0.0 0.0 0.0" pbc="F F F"
C          3.92810       -2.15720        0.10310
H          4.77080       -1.89260        0.73550
C          2.77090       -1.38700        0.13680
H          2.67870       -0.51940        0.78430
C          1.69910       -1.74000       -0.67610
S          0.25610       -0.70530       -0.65250
N         -0.97740       -1.84930       -0.70650
C         -2.23040       -1.31950       -1.24660
H         -2.02340       -0.82330       -2.19560
H         -2.72270       -0.61010       -0.56560
H         -2.89690       -2.16690       -1.42910
C         -1.14400       -2.58290        0.54560
H         -0.23580       -3.15170        0.76470
H         -1.95960       -3.29870        0.40790
H         -1.37350       -1.92170        1.39060
C          1.76000       -2.84300       -1.52310
H          0.90590       -3.10390       -2.14330
C          2.92430       -3.60430       -1.55040
H          2.98930       -4.46930       -2.20470
C          4.00490       -3.26420       -0.73930
H          4.91110       -3.86440       -0.76440
O          0.19140        0.06410       -1.88830
O          0.22920       -0.01750        0.63280
