21
Properties=species:S:1:pos:R:3:forces:R:3 energy=-15739.678264655116 stress="0.0 0.0 0.0 0.0 0.0 0.0 0.0 0.0 0.0" pbc="F F F"
C         21.86120      -32.61310       -1.01130
H         22.43090      -32.14870       -1.81230
C         20.47500      -32.55020       -0.98860
H         19.93260      -32.03250       -1.77510
C         19.79890      -33.15170        0.06610
H         18.71570      -33.12490        0.13560
C         20.55060      -33.79620        1.04280
H         20.06010      -34.27830        1.88590
N         21.88100      -33.88040        1.02590
C         22.52580      -33.29910        0.01000
C         26.15770      -32.19040       -0.02380
H         26.71790      -31.26070       -0.04680
C         24.76720      -32.16410       -0.01860
H         24.24710      -31.20910       -0.03980
C         24.01820      -33.34140        0.02690
C         24.71660      -34.54730        0.02770
C         26.10240      -34.60040        0.00970
H         26.58790      -35.57070        0.01580
C         26.82360      -33.41230       -0.01100
H         27.90930      -33.44420       -0.02030
F         24.03750      -35.70220        0.03980
