21
Properties=species:S:1:pos:R:3:forces:R:3 energy=-13945.429371135517 stress="0.0 0.0 0.0 0.0 0.0 0.0 0.0 0.0 0.0" pbc="F F F"
C         29.15610      -17.04310       -1.52080
H         29.62430      -17.64560       -2.29140
C         27.77870      -17.07460       -1.35100
H         27.16030      -17.67710       -2.01000
C         27.21330      -16.32030       -0.33170
H         26.14120      -16.30480       -0.16170
C         28.06880      -15.58750        0.48590
H         27.67490      -14.99260        1.30810
N         29.39140      -15.56220        0.34490
C         29.92940      -16.24940       -0.66460
N         32.21520      -16.02890        0.25420
C         33.47660      -16.06670       -0.26820
H         34.35000      -15.97360        0.36420
C         33.42840      -16.21690       -1.62630
H         34.19410      -16.27990       -2.38620
N         32.09690      -16.28070       -1.95240
C         31.40560      -16.18310       -0.77110
C         31.59540      -16.31230       -3.31470
H         32.32530      -15.82690       -3.96670
H         30.65540      -15.76030       -3.38010
H         31.44350      -17.33720       -3.67040
