14
Properties=species:S:1:pos:R:3:forces:R:3 energy=-10410.266311053418 stress="0.0 0.0 0.0 0.0 0.0 0.0 0.0 0.0 0.0" pbc="F F F"
O          4.56860       -3.05520        0.00000
C          3.55260       -5.22350        0.00030
H          3.58530       -5.87060       -0.88360
H          2.62300       -4.65210        0.00040
H          3.58550       -5.87050        0.88440
C          4.71870       -4.25880        0.00010
C          6.52680       -6.14110        0.00010
H          5.91830       -7.03740        0.00020
C          7.95200       -6.05930        0.00000
H          8.66190       -6.87420        0.00000
C          8.24390       -4.73270       -0.00010
H          9.17360       -4.18100       -0.00020
O          7.12150       -3.98990       -0.00010
C          6.07180       -4.85480        0.00000
