17
Properties=species:S:1:pos:R:3:forces:R:3 energy=-13416.133605543708 stress="0.0 0.0 0.0 0.0 0.0 0.0 0.0 0.0 0.0" pbc="F F F"
C         12.61990      -20.52580        0.00330
H         13.20800      -19.61220        0.00370
C         11.23150      -20.48980       -0.02560
H         10.70360      -19.54030       -0.05440
C         10.53210      -21.68950       -0.01470
H          9.44610      -21.71140       -0.03560
C         11.25690      -22.87710        0.02800
H         10.74650      -23.83830        0.04280
N         12.58840      -22.93080        0.05430
C         13.24830      -21.76970        0.03270
N         15.52490      -21.68400        1.06780
C         16.79240      -21.87040        0.53490
H         17.68050      -21.79470        1.14660
C         16.68390      -22.14300       -0.78250
H         17.37420      -22.35400       -1.58480
O         15.35840      -22.13670       -1.10190
C         14.73200      -21.84650        0.06110
