15
Properties=species:S:1:pos:R:3:forces:R:3 energy=-7830.3939571616 stress="0.0 0.0 0.0 0.0 0.0 0.0 0.0 0.0 0.0" pbc="F F F"
C          2.75420       -2.89080       -1.06730
H          3.77060       -2.50200       -1.18950
H          2.22000       -2.76460       -2.01440
H          2.80220       -3.95630       -0.84210
C          2.04610       -2.12880        0.04900
H          2.09850       -1.05250       -0.14070
H          2.56610       -2.30770        1.00120
N          0.62980       -2.44880        0.20000
H         -0.00030       -1.67700        0.34690
C          0.07700       -3.68910        0.09980
C         -1.43630       -3.72380        0.23350
H         -1.88150       -2.76630        0.52190
H         -1.69750       -4.48020        0.97760
H         -1.86520       -4.04180       -0.72150
O          0.71890       -4.71400       -0.07160
