14
Properties=species:S:1:pos:R:3:forces:R:3 energy=-31478.166779434083 stress="0.0 0.0 0.0 0.0 0.0 0.0 0.0 0.0 0.0" pbc="F F F"
C          2.01200      -24.64160       -0.89710
H          0.96540      -24.68220       -1.17060
C          2.79890      -25.65630       -0.45290
H          2.47100      -26.67750       -0.30520
N          4.10050      -25.33290       -0.17220
C          4.30510      -24.08380       -0.42640
S          2.92780      -23.18880       -0.97360
S          5.89130      -23.28180       -0.17400
C          6.61010      -23.23050       -1.81070
H          5.94830      -22.67080       -2.47320
H          7.56380      -22.70950       -1.70410
H          6.77250      -24.24990       -2.16610
O          5.60750      -21.90400        0.20470
O          6.71490      -24.14930        0.65150
