22
Properties=species:S:1:pos:R:3:forces:R:3 energy=-15303.325360690638 stress="0.0 0.0 0.0 0.0 0.0 0.0 0.0 0.0 0.0" pbc="F F F"
C         12.76530      -34.08490       -0.95030
H         13.25600      -34.83580       -1.55510
C         11.38630      -33.94020       -1.04640
H         10.83030      -34.59590       -1.71160
C         10.71700      -32.97360       -0.30540
H          9.63880      -32.86780       -0.38360
C         11.44920      -32.14360        0.53580
H         10.94800      -31.37840        1.12370
C         12.82790      -32.28110        0.62710
H         13.35740      -31.63060        1.31650
C         13.51840      -33.26310       -0.09850
C         17.15290      -32.27190        0.51130
H         17.68010      -31.41970        0.93140
C         15.76490      -32.27560        0.49450
H         15.25730      -31.39790        0.87890
C         15.01490      -33.34220       -0.02660
C         15.77680      -34.39680       -0.54590
C         17.16210      -34.42170       -0.54310
H         17.66660      -35.28750       -0.96180
C         17.86080      -33.34880       -0.00950
H         18.94630      -33.35480       -0.00130
F         15.17500      -35.50150       -1.04560
