14
Properties=species:S:1:pos:R:3:forces:R:3 energy=-8266.767370432673 stress="0.0 0.0 0.0 0.0 0.0 0.0 0.0 0.0 0.0" pbc="F F F"
C          1.01020       -2.52870       -0.87870
H          1.81400       -1.90780       -1.28200
H          0.13460       -1.89710       -0.67410
H          0.72980       -3.27210       -1.62690
N          1.49850       -3.23200        0.30080
H          1.81740       -2.60120        1.02490
C          0.70910       -4.27200        0.77960
N          0.62130       -4.34050        2.16000
H          1.41440       -3.98300        2.67440
C         -0.00720       -5.51890        2.73360
H         -0.97310       -5.67200        2.25090
H         -0.16600       -5.35130        3.80130
H          0.58860       -6.42960        2.59170
O          0.08660       -5.01790        0.04340
