14
Properties=species:S:1:pos:R:3:forces:R:3 energy=-12410.612495425135 stress="0.0 0.0 0.0 0.0 0.0 0.0 0.0 0.0 0.0" pbc="F F F"
C         -0.14620       -0.00050        0.21860
H          0.07360       -0.60370        1.10410
H          0.17090       -0.57800       -0.65610
C          0.60320        1.33160        0.24350
H          0.33800        1.90410       -0.65090
H          0.26580        1.92230        1.10370
C          2.11340        1.13240        0.31050
H          2.47450        0.56850       -0.55720
H          2.39650        0.57670        1.21190
H          2.64190        2.09070        0.32930
C         -1.65610        0.13800        0.12420
F         -2.04260        1.32870       -0.37030
F         -2.17880       -0.81110       -0.67960
F         -2.24990       -0.01330        1.32430
