17
Properties=species:S:1:pos:R:3:forces:R:3 energy=-11375.967235627442 stress="0.0 0.0 0.0 0.0 0.0 0.0 0.0 0.0 0.0" pbc="F F F"
O         18.99460      -12.14960        0.01600
C         19.39850       -9.80700        0.00860
H         19.77780       -9.28260        0.89070
H         18.30770       -9.77250        0.01400
H         19.76880       -9.28670       -0.87970
C         19.81840      -11.26160        0.00980
N         21.64600      -12.88540        0.00430
C         23.00490      -12.86540       -0.00270
H         23.58440      -13.78000       -0.00350
C         23.46120      -11.57620       -0.00800
H         24.45630      -11.15380       -0.01400
N         22.35080      -10.77560       -0.00420
C         21.26620      -11.62380        0.00330
C         22.42860       -9.32470       -0.00790
H         23.48470       -9.04910       -0.01390
H         21.97240       -8.89520        0.88720
H         21.96340       -8.89930       -0.90030
