22
Properties=species:S:1:pos:R:3:forces:R:3 energy=-13509.242067519583 stress="0.0 0.0 0.0 0.0 0.0 0.0 0.0 0.0 0.0" pbc="F F F"
C         21.64770      -17.42890       -0.40410
H         22.27650      -18.19830       -0.84430
C         20.27370      -17.43460       -0.60350
H         19.81930      -18.22380       -1.19710
C         19.48220      -16.43250       -0.05020
H         18.40700      -16.43530       -0.20680
C         20.07990      -15.42140        0.69630
H         19.47570      -14.62690        1.12520
C         21.45410      -15.41940        0.90320
H         21.89800      -14.60060        1.45860
C         22.25480      -16.43180        0.36500
N         24.49550      -17.21290       -0.25170
C         25.76910      -17.02440        0.20540
H         26.62280      -17.48050       -0.28070
C         25.76140      -16.22470        1.31130
H         26.54740      -15.85730        1.95500
N         24.44440      -15.90380        1.54090
C         23.71690      -16.50800        0.54720
C         23.99030      -15.17520        2.71200
H         24.76770      -15.23490        3.47670
H         23.07980      -15.62890        3.11120
H         23.80870      -14.11800        2.48980
