15
Properties=species:S:1:pos:R:3:forces:R:3 energy=-21141.7876975781 stress="0.0 0.0 0.0 0.0 0.0 0.0 0.0 0.0 0.0" pbc="F F F"
C         28.42010      -16.91130       -1.09280
N         29.33290      -16.98220       -0.03890
H         29.12940      -16.29460        0.67700
N         30.88240      -18.77150       -0.32420
C         32.22420      -19.01860       -0.13230
H         32.60310      -20.01650       -0.31960
C         32.97770      -17.97320        0.28030
H         34.03740      -17.94630        0.48780
S         31.97920      -16.57630        0.45850
C         30.61280      -17.53430       -0.05250
O         27.47380      -16.16030       -0.99160
C         28.66730      -17.79610       -2.28560
H         29.57240      -17.48020       -2.81280
H         28.81500      -18.83730       -1.98640
H         27.80880      -17.70400       -2.95150
