22
Properties=species:S:1:pos:R:3:forces:R:3 energy=-13046.160353731144 stress="0.0 0.0 0.0 0.0 0.0 0.0 0.0 0.0 0.0" pbc="F F F"
C          3.95270       -2.06390       -1.85480
H          4.93040       -1.96970       -2.32170
C          3.19430       -0.92700       -1.60140
H          3.55580        0.05960       -1.88040
C          1.94900       -1.03760       -0.98150
C          1.14630        0.21900       -0.75460
C          1.44330       -2.30040       -0.67010
H          0.46150       -2.38720       -0.21060
C          2.19800       -3.43890       -0.93700
H          1.80580       -4.41790       -0.67910
C          3.45620       -3.32170       -1.52120
H          4.04660       -4.21210       -1.72260
N          0.75190        0.48610        0.53100
C         -0.09060        1.64380        0.75770
H         -0.39910        2.03980       -0.20970
H         -0.97410        1.36340        1.34270
H          0.45250        2.42480        1.30750
C          1.24590       -0.17590        1.72120
H          1.97960       -0.94060        1.47020
H          1.72760        0.55360        2.38520
H          0.42070       -0.64080        2.27560
O          0.90010        0.97970       -1.68040
