13
Properties=species:S:1:pos:R:3:forces:R:3 energy=-10846.814761992775 stress="0.0 0.0 0.0 0.0 0.0 0.0 0.0 0.0 0.0" pbc="F F F"
O          4.04200      -18.16350        0.15020
C          4.85290      -15.93740       -0.23030
H          5.38430      -15.37960        0.54750
H          3.79460      -15.67160       -0.22280
H          5.30110      -15.65520       -1.18870
C          4.98450      -17.42300       -0.00450
N          6.73880      -19.21770        0.00160
C          8.11860      -19.16400       -0.00560
H          8.72210      -20.06100       -0.00830
C          8.51570      -17.87110       -0.00780
H          9.46780      -17.36350       -0.01190
O          7.40130      -17.09300       -0.00500
C          6.37170      -17.97710        0.00600
