18
Properties=species:S:1:pos:R:3:forces:R:3 energy=-10939.142017468948 stress="0.0 0.0 0.0 0.0 0.0 0.0 0.0 0.0 0.0" pbc="F F F"
C         -3.09190        1.26780       -2.29610
H         -4.14100        1.48880       -2.46900
C         -2.09070        2.14880       -2.68590
H         -2.33530        3.08750       -3.17780
C         -0.76860        1.80680       -2.43200
H          0.05040        2.46460       -2.71240
C         -0.49720        0.59080       -1.80420
N         -1.45240       -0.26180       -1.42590
C         -2.71820        0.08440       -1.66960
H         -3.47440       -0.62980       -1.34600
C          0.93130        0.19330       -1.48080
H          1.61880        0.82320       -2.06940
H          1.12590        0.38940       -0.42090
O          1.20920       -1.16700       -1.66700
C          1.17410       -1.56670       -3.01710
H          1.49410       -2.61130       -3.04760
H          0.16050       -1.49140       -3.43550
H          1.85750       -0.96510       -3.63770
