21
Properties=species:S:1:pos:R:3:forces:R:3 energy=-13945.616170077668 stress="0.0 0.0 0.0 0.0 0.0 0.0 0.0 0.0 0.0" pbc="F F F"
C         29.17000      -17.05560       -1.50320
H         29.66680      -17.65830       -2.25860
C         27.78990      -17.06640       -1.35660
H         27.17020      -17.66590       -2.01840
C         27.21820      -16.30910       -0.34110
H         26.14440      -16.29150       -0.18220
C         28.06240      -15.57090        0.48120
H         27.65380      -14.97150        1.29130
N         29.38700      -15.53250        0.34330
C         29.92950      -16.25750       -0.64700
N         32.13500      -17.37900       -0.85950
C         33.43480      -16.95440       -0.80840
H         34.26070      -17.65010       -0.87510
C         33.48780      -15.59530       -0.66460
H         34.30820      -14.89620       -0.58760
N         32.18420      -15.16880       -0.62520
C         31.40850      -16.28640       -0.75000
C         31.74410      -13.79300       -0.46360
H         32.58450      -13.13190       -0.68740
H         31.37520      -13.60890        0.54850
H         30.93340      -13.59530       -1.16800
