14
Properties=species:S:1:pos:R:3:forces:R:3 energy=-8266.51343939558 stress="0.0 0.0 0.0 0.0 0.0 0.0 0.0 0.0 0.0" pbc="F F F"
C          2.57450       -3.57350       -0.53720
H          2.98460       -2.67150       -0.99940
H          3.36960       -4.07930        0.03140
H          2.23230       -4.24220       -1.33170
N          1.42100       -3.20680        0.27810
H          1.68460       -2.55740        1.00810
C          0.67460       -4.28900        0.77070
N          0.77310       -4.48860        2.13450
H          1.08980       -3.71410        2.69970
C         -0.16090       -5.40190        2.76880
H         -0.27270       -6.27670        2.12780
H          0.23990       -5.71350        3.73610
H         -1.15370       -4.95590        2.91240
O          0.07970       -5.06040        0.04140
