18
Properties=species:S:1:pos:R:3:forces:R:3 energy=-12876.033420749305 stress="0.0 0.0 0.0 0.0 0.0 0.0 0.0 0.0 0.0" pbc="F F F"
C         13.90470      -15.02750       -0.01040
H         14.43770      -14.08030       -0.00340
C         12.51670      -15.05650       -0.01200
H         11.94740      -14.13080       -0.02310
C         11.87340      -16.28790       -0.00560
H         10.79020      -16.36370       -0.01120
C         12.66000      -17.43620        0.01080
H         12.19970      -18.42270        0.01840
N         13.99030      -17.42550        0.02270
C         14.60350      -16.23900        0.00930
N         16.87240      -17.05640        0.67590
C         18.14680      -16.64920        0.37910
H         19.00580      -17.15020        0.80540
C         18.13170      -15.58850       -0.48470
H         18.91840      -15.00600       -0.94130
N         16.80200      -15.33280       -0.70880
H         16.42240      -14.66790       -1.36400
C         16.08340      -16.25330        0.00120
