21
Properties=species:S:1:pos:R:3:forces:R:3 energy=-13945.376619307444 stress="0.0 0.0 0.0 0.0 0.0 0.0 0.0 0.0 0.0" pbc="F F F"
C         29.14540      -17.12470       -1.47010
H         29.58010      -17.73730       -2.24780
C         27.76550      -17.09000       -1.32390
H         27.13550      -17.70550       -1.96010
C         27.20930      -16.26120       -0.35950
H         26.13620      -16.20330       -0.20580
C         28.07700      -15.48720        0.40420
H         27.69270      -14.80940        1.16500
N         29.39930      -15.50480        0.26790
C         29.93840      -16.33390       -0.62950
N         32.11080      -15.33160       -0.09650
C         33.41570      -15.58970       -0.39510
H         34.21390      -14.95770       -0.02670
C         33.51600      -16.71050       -1.17020
H         34.36000      -17.23280       -1.59760
N         32.23270      -17.15640       -1.36240
C         31.41480      -16.26790       -0.70630
C         31.91830      -18.40250       -2.03920
H         32.84160      -18.97730       -2.13810
H         31.20760      -18.99100       -1.45340
H         31.51470      -18.22880       -3.04210
