18
Properties=species:S:1:pos:R:3:forces:R:3 energy=-8457.023292943855 stress="0.0 0.0 0.0 0.0 0.0 0.0 0.0 0.0 0.0" pbc="F F F"
C          5.51510      -23.17620       -0.03940
C          6.81810      -22.39840       -0.04250
H          6.60820      -21.36810        0.26800
C          7.91970      -22.97910        0.84380
H          7.58010      -23.07730        1.88000
H          8.24000      -23.96790        0.50030
H          8.80020      -22.32830        0.83570
H          7.19050      -22.32740       -1.07510
C          4.29780      -22.49190       -0.04430
H          4.30230      -21.40300       -0.03830
C          3.08530      -23.17440       -0.05470
H          2.15050      -22.61780       -0.05810
C          3.07030      -24.56530       -0.05960
H          2.12620      -25.10420       -0.06800
C          4.27520      -25.26070       -0.05340
H          4.27640      -26.34830       -0.05620
C          5.48440      -24.57290       -0.04090
H          6.41460      -25.13740       -0.04150
