14
Properties=species:S:1:pos:R:3:forces:R:3 energy=-12410.658819297783 stress="0.0 0.0 0.0 0.0 0.0 0.0 0.0 0.0 0.0" pbc="F F F"
C         -0.14700        0.00120        0.22580
H          0.07360       -0.60610        1.10870
H          0.16210       -0.57380       -0.65390
C          0.60290        1.33330        0.25040
H          0.33210        1.90810       -0.64090
H          0.27240        1.92110        1.11510
C          2.11360        1.13170        0.30530
H          2.46770        0.57120       -0.56750
H          2.40230        0.57140        1.20200
H          2.64400        2.08890        0.32460
C         -1.65220        0.14610        0.13890
F         -2.02930        1.24320       -0.54370
F         -2.20310       -0.91700       -0.48250
F         -2.22130        0.21070        1.35870
