20
Properties=species:S:1:pos:R:3:forces:R:3 energy=-13476.137999087152 stress="0.0 0.0 0.0 0.0 0.0 0.0 0.0 0.0 0.0" pbc="F F F"
C         12.97420      -24.09290       -0.41810
H         13.52720      -23.22380       -0.76210
C         11.58560      -24.10000       -0.39180
H         11.02060      -23.23230       -0.72160
C         10.93640      -25.23820        0.06890
H          9.85270      -25.29600        0.11250
C         11.71350      -26.31640        0.48090
H         11.24350      -27.22570        0.85070
N         13.04760      -26.32860        0.45750
C         13.66040      -25.23100        0.00630
C         17.22940      -24.52820        0.99130
H         17.79250      -24.00500        1.75960
C         15.84080      -24.54090        1.01570
H         15.28590      -24.02760        1.79560
C         15.15720      -25.23170        0.01490
N         15.77230      -25.87050       -0.98380
C         17.10640      -25.84370       -0.99480
H         17.57840      -26.37540       -1.81890
C         17.88120      -25.19470       -0.03830
H         18.96490      -25.21430       -0.10630
