22
Properties=species:S:1:pos:R:3:forces:R:3 energy=-15303.372794477884 stress="0.0 0.0 0.0 0.0 0.0 0.0 0.0 0.0 0.0" pbc="F F F"
C         12.83480      -32.53670        0.92690
H         13.38580      -31.97270        1.67480
C         11.44740      -32.47850        0.94250
H         10.94490      -31.84970        1.67350
C         10.70670      -33.21640        0.02520
H          9.62130      -33.16990        0.02950
C         11.37290      -34.02030       -0.89300
H         10.80750      -34.60930       -1.61050
C         12.76110      -34.09050       -0.90090
H         13.25510      -34.71860       -1.63280
C         13.52140      -33.32750       -0.00500
C         17.14240      -32.25630        0.47890
H         17.66620      -31.38840        0.87000
C         15.75460      -32.28810        0.50430
H         15.22920      -31.41680        0.88350
C         15.01670      -33.37960        0.02180
C         15.77830      -34.42560       -0.51060
C         17.16360      -34.42420       -0.54590
H         17.67420      -35.28410       -0.96890
C         17.85420      -33.32920       -0.04610
H         18.93960      -33.31430       -0.06920
F         15.17280      -35.53870       -0.98370
