21
Properties=species:S:1:pos:R:3:forces:R:3 energy=-13945.376621418798 stress="0.0 0.0 0.0 0.0 0.0 0.0 0.0 0.0 0.0" pbc="F F F"
C         29.13510      -17.02150       -1.55530
H         29.56810      -17.61800       -2.34630
C         27.76140      -17.04880       -1.35790
H         27.12820      -17.63290       -2.02000
C         27.21550      -16.32360       -0.30790
H         26.14700      -16.31140       -0.11650
C         28.08990      -15.61560        0.51020
H         27.71600      -15.04130        1.35670
N         29.40770      -15.58850        0.33710
C         29.93000      -16.25030       -0.69860
N         32.14320      -15.65400        0.17000
C         33.43120      -15.74390       -0.26770
H         34.25870      -15.40420        0.34220
C         33.47330      -16.28540       -1.52150
H         34.28720      -16.50780       -2.19680
N         32.17120      -16.54440       -1.86810
C         31.40420      -16.16210       -0.79370
C         31.77910      -17.01630       -3.18470
H         32.63290      -16.89910       -3.85540
H         30.94960      -16.42200       -3.57620
H         31.49920      -18.07480       -3.16940
