19
Properties=species:S:1:pos:R:3:forces:R:3 energy=-12543.379855946225 stress="0.0 0.0 0.0 0.0 0.0 0.0 0.0 0.0 0.0" pbc="F F F"
C          4.42300       -7.98930       -0.00040
H          4.97350       -7.05330       -0.00080
C          3.03390       -7.98150       -0.00070
H          2.50070       -7.03350       -0.00120
C          2.32390       -9.18100       -0.00030
H          1.23720       -9.17060       -0.00050
C          3.01160      -10.39120        0.00050
H          2.46440      -11.33000        0.00080
C          4.40140      -10.40190        0.00080
H          4.93080      -11.35150        0.00140
C          5.12160       -9.20370        0.00030
C          7.51220      -10.23170        0.00120
H          7.32030      -11.29670        0.00170
C          8.79450       -9.59800        0.00110
H          9.76410      -10.07590        0.00140
C          8.55350       -8.26510        0.00040
H          9.19280       -7.39420        0.00000
O          7.22070       -8.02200        0.00010
C          6.58700       -9.22960        0.00060
