17
Properties=species:S:1:pos:R:3:forces:R:3 energy=-11376.381637847506 stress="0.0 0.0 0.0 0.0 0.0 0.0 0.0 0.0 0.0" pbc="F F F"
C         18.89920      -30.60360        0.99020
N         19.90870      -30.45350        0.05460
H         19.56740      -30.04140       -0.80720
C         21.29800      -32.59040       -0.01190
H         20.52900      -33.35230       -0.00560
C         22.70490      -32.78990       -0.02140
H         23.22030      -33.74260       -0.02830
C         23.29830      -31.55070       -0.02410
H         24.34050      -31.26180       -0.03100
N         22.30300      -30.61210       -0.02810
H         22.42480      -29.61510        0.04410
C         21.07780      -31.23220       -0.01360
O         17.78660      -30.16980        0.76700
C         19.27910      -31.25600        2.30040
H         18.82910      -32.25320        2.35820
H         18.85950      -30.66240        3.11620
H         20.36350      -31.34250        2.41210
