14
Properties=species:S:1:pos:R:3:forces:R:3 energy=-10410.016447916136 stress="0.0 0.0 0.0 0.0 0.0 0.0 0.0 0.0 0.0" pbc="F F F"
O          4.45890       -3.42770        1.00520
C          3.65440       -4.72570       -0.83550
H          3.95630       -4.41270       -1.84190
H          2.68900       -4.28390       -0.58170
H          3.57630       -5.81960       -0.84930
C          4.68630       -4.27940        0.17470
C          6.51920       -6.15080        0.05370
H          5.92320       -7.05390        0.09380
C          7.94590       -6.05460       -0.00280
H          8.66120       -6.86500       -0.01580
C          8.22290       -4.72650       -0.03060
H          9.14300       -4.16060       -0.06870
O          7.08770       -3.99590        0.00960
C          6.05050       -4.87420        0.02400
