18
Properties=species:S:1:pos:R:3:forces:R:3 energy=-12979.94631007739 stress="0.0 0.0 0.0 0.0 0.0 0.0 0.0 0.0 0.0" pbc="F F F"
C          4.48260      -20.73900       -0.00870
H          5.03830      -19.80480       -0.00510
C          3.09250      -20.73470       -0.01110
H          2.55340      -19.79040       -0.01720
C          2.39280      -21.93880        0.00110
H          1.30550      -21.93520        0.00270
C          3.08390      -23.14710        0.01450
H          2.53710      -24.08650        0.02770
C          4.47510      -23.15400        0.00870
H          5.02410      -24.09240        0.01350
C          5.17940      -21.94980       -0.01510
N          7.47240      -22.50090       -0.83240
C          8.73020      -22.14290       -0.37220
H          9.63010      -22.45690       -0.88170
C          8.59940      -21.38920        0.73990
H          9.27600      -20.90280        1.42490
O          7.26670      -21.25160        0.99400
C          6.65410      -21.96090        0.01380
