15
Properties=species:S:1:pos:R:3:forces:R:3 energy=-12353.457604507938 stress="0.0 0.0 0.0 0.0 0.0 0.0 0.0 0.0 0.0" pbc="F F F"
C         11.21380      -17.36930       -0.07320
N         12.55560      -17.00560        0.03300
H         12.70150      -16.01140        0.15260
N         13.78700      -19.08390       -0.14240
C         15.16220      -19.29850       -0.10000
H         15.58750      -20.28730       -0.19120
C         15.80200      -18.12880        0.06340
H         16.83150      -17.82220        0.14800
O         14.84180      -17.13920        0.12880
C         13.67860      -17.80310       -0.00270
O         10.37150      -16.49870       -0.01550
C         10.89820      -18.82880       -0.25360
H         11.37370      -19.22210       -1.15510
H          9.81480      -18.92950       -0.31760
H         11.28960      -19.41830        0.57870
