14
Properties=species:S:1:pos:R:3:forces:R:3 energy=-4310.501129119126 stress="0.0 0.0 0.0 0.0 0.0 0.0 0.0 0.0 0.0" pbc="F F F"
C          0.12500        0.16830        0.15930
H          1.00740        0.12410       -0.49160
H         -0.65420        0.71860       -0.37810
C         -0.36160       -1.22870        0.54400
H         -0.73910       -1.74870       -0.34510
C          0.69410       -2.11130        1.23150
H          0.19150       -2.95340        1.72300
H          1.34510       -2.55320        0.46400
C          1.58250       -1.37970        2.23730
H          0.98890       -0.88840        3.01870
H          2.26720       -2.07630        2.73210
H          2.19130       -0.61200        1.74820
H         -1.22360       -1.11330        1.21610
H          0.39180        0.75610        1.04400
