14
Properties=species:S:1:pos:R:3:forces:R:3 energy=-12410.736077042406 stress="0.0 0.0 0.0 0.0 0.0 0.0 0.0 0.0 0.0" pbc="F F F"
C         -0.14370        0.00060        0.16710
H          0.02730       -0.55560        1.09510
H          0.19290       -0.62820       -0.66330
C          0.60610        1.33200        0.19860
H          0.38930        1.88710       -0.72150
H          0.22280        1.93660        1.02790
C          2.11070        1.13290        0.34800
H          2.51310        0.54570       -0.48540
H          2.34630        0.60040        1.27650
H          2.64140        2.09000        0.36860
C         -1.63610        0.16110        0.02460
F         -2.27060       -1.01350        0.20390
F         -2.14070        1.03040        0.92160
F         -1.97280        0.60680       -1.20270
