15
Properties=species:S:1:pos:R:3:forces:R:3 energy=-12353.40111135757 stress="0.0 0.0 0.0 0.0 0.0 0.0 0.0 0.0 0.0" pbc="F F F"
C         12.25590      -15.72780       -0.24750
N         12.53760      -17.05940        0.06880
H         11.70640      -17.60910        0.24070
N         13.79340      -19.06680        0.18340
C         15.15880      -19.30680        0.08070
H         15.56650      -20.30420        0.16290
C         15.81690      -18.15250       -0.12280
H         16.84850      -17.86770       -0.25600
O         14.87400      -17.14330       -0.15560
C         13.70690      -17.78520        0.03560
O         11.09410      -15.37990       -0.24440
C         13.39200      -14.79050       -0.56430
H         13.94130      -15.12250       -1.44770
H         12.95510      -13.80760       -0.74280
H         14.10950      -14.74290        0.25740
