22
Properties=species:S:1:pos:R:3:forces:R:3 energy=-15303.432146972827 stress="0.0 0.0 0.0 0.0 0.0 0.0 0.0 0.0 0.0" pbc="F F F"
C         12.81610      -34.42860        0.53540
H         13.34750      -35.28180        0.94810
C         11.42660      -34.39200        0.56390
H         10.87650      -35.21930        1.00360
C         10.74220      -33.30800        0.02190
H          9.65570      -33.28340        0.03830
C         11.45660      -32.25630       -0.54550
H         10.93090      -31.40620       -0.97220
C         12.84620      -32.28440       -0.55590
H         13.40340      -31.45900       -0.99490
C         13.54240      -33.36840       -0.01350
C         17.13580      -32.23330        0.45470
H         17.65880      -31.35610        0.82390
C         15.74630      -32.25610        0.44280
H         15.19120      -31.39730        0.81270
C         15.03170      -33.36850       -0.01300
C         15.78620      -34.44590       -0.47960
C         17.17160      -34.44660       -0.49210
H         17.69220      -35.32170       -0.86720
C         17.85010      -33.33070       -0.01670
H         18.93610      -33.31990       -0.01630
F         15.15450      -35.54050       -0.94890
