10
Properties=species:S:1:pos:R:3:forces:R:3 energy=-6263.5718119364265 stress="0.0 0.0 0.0 0.0 0.0 0.0 0.0 0.0 0.0" pbc="F F F"
O          0.48790       -3.76210        2.91180
H          1.44820       -3.80940        3.01140
C          0.20640       -3.42460        1.58140
H          0.68910       -2.48210        1.29190
H         -0.88680       -3.31190        1.53830
O          0.61960       -4.38290        0.64910
C          0.19710       -5.69550        0.96510
H          0.60020       -6.35010        0.18960
H         -0.90150       -5.77080        0.96330
H          0.56560       -6.01070        1.94790
