17
Properties=species:S:1:pos:R:3:forces:R:3 energy=-22204.739086717876 stress="0.0 0.0 0.0 0.0 0.0 0.0 0.0 0.0 0.0" pbc="F F F"
C         30.13100      -21.10880       -0.01340
H         30.71110      -20.19080       -0.01990
C         28.74230      -21.08870        0.02140
H         28.20380      -20.14520        0.04920
C         28.05700      -22.29700        0.01720
H         26.97160      -22.33160        0.04280
C         28.79510      -23.47570       -0.02490
H         28.29470      -24.44190       -0.03440
N         30.12760      -23.51630       -0.05760
C         30.77360      -22.34700       -0.03980
N         32.97460      -22.22440       -1.14180
C         34.31110      -22.37620       -0.85800
H         35.02990      -22.25180       -1.65740
C         34.61320      -22.67890        0.43330
H         35.58650      -22.84090        0.87580
S         33.17150      -22.78720        1.35860
C         32.26360      -22.40900       -0.07150
