11
Properties=species:S:1:pos:R:3:forces:R:3 energy=-5940.606320842553 stress="0.0 0.0 0.0 0.0 0.0 0.0 0.0 0.0 0.0" pbc="F F F"
F         13.26520      -26.48970        0.01060
C         14.39850      -25.68650       -0.00010
H         14.34670      -25.07300       -0.90810
H         14.35920      -25.02360        0.87220
C         15.65480      -26.54450       -0.00430
H         16.49760      -25.91370       -0.31330
H         15.87050      -26.87280        1.01990
C         15.52140      -27.76970       -0.90480
H         15.29920      -27.48330       -1.93890
H         14.70870      -28.41110       -0.55560
H         16.44550      -28.35600       -0.90870
