18
Properties=species:S:1:pos:R:3:forces:R:3 energy=-12413.533230822008 stress="0.0 0.0 0.0 0.0 0.0 0.0 0.0 0.0 0.0" pbc="F F F"
C          7.45410      -26.91040        0.02190
H          6.53500      -26.33320        0.04790
C          7.43830      -28.30320        0.05650
H          6.49730      -28.84490        0.10660
C          8.63550      -28.99910        0.01350
H          8.68050      -30.08180        0.00920
C          9.81450      -28.25290       -0.03870
N          9.85440      -26.92390       -0.07810
C          8.68480      -26.27660       -0.04850
H          8.74710      -25.19020       -0.07980
N         11.07370      -28.88890       -0.05780
H         11.82370      -28.24980        0.17190
C         11.40920      -29.92260       -0.91800
C         12.90250      -30.17300       -1.01770
H         13.38900      -29.37800       -1.59360
H         13.36300      -30.20460       -0.02540
H         13.06030      -31.12300       -1.52740
O         10.58170      -30.58300       -1.51280
