16
Properties=species:S:1:pos:R:3:forces:R:3 energy=-9433.50167172357 stress="0.0 0.0 0.0 0.0 0.0 0.0 0.0 0.0 0.0" pbc="F F F"
C         -2.11370        1.07390       -0.84410
H         -2.64980        1.85500       -0.31070
C         -2.81760        0.02210       -1.43040
H         -3.90060       -0.02120       -1.35680
C         -2.11940       -0.96620       -2.10950
H         -2.65550       -1.79100       -2.57480
C         -0.72890       -0.91930       -2.21150
H         -0.20440       -1.69910       -2.75410
C         -0.03360        0.13180       -1.61480
C         -0.73230        1.13380       -0.93340
H         -0.16420        1.94160       -0.48040
O          1.32060        0.26780       -1.63910
C          2.04500       -0.59200       -2.49080
H          3.08410       -0.26340       -2.43990
H          1.97950       -1.63630       -2.15720
H          1.69060       -0.52470       -3.52760
