11
Properties=species:S:1:pos:R:3:forces:R:3 energy=-5940.564225909518 stress="0.0 0.0 0.0 0.0 0.0 0.0 0.0 0.0 0.0" pbc="F F F"
F         13.26130      -26.47160        0.01090
C         14.40150      -25.67760        0.00060
H         14.37410      -25.02050        0.87900
H         14.35270      -25.05170       -0.89890
C         15.64510      -26.55380       -0.00370
H         16.43890      -26.02550       -0.54770
H         15.41700      -27.45990       -0.57590
C         16.14140      -26.89160        1.39990
H         16.40190      -25.97990        1.94950
H         15.37070      -27.41760        1.97420
H         17.03050      -27.52890        1.36590
