22
Properties=species:S:1:pos:R:3:forces:R:3 energy=-13509.256905219969 stress="0.0 0.0 0.0 0.0 0.0 0.0 0.0 0.0 0.0" pbc="F F F"
C         21.64280      -17.44610       -0.38860
H         22.26030      -18.24860       -0.78410
C         20.26140      -17.47900       -0.52850
H         19.79290      -18.30770       -1.05320
C         19.47830      -16.45990        0.00680
H         18.39750      -16.48730       -0.10100
C         20.08800      -15.41260        0.69130
H         19.48770      -14.61750        1.12410
C         21.47120      -15.37350        0.82220
H         21.92740      -14.56440        1.38430
C         22.26630      -16.38170        0.26750
N         24.45110      -17.50520        0.39790
C         25.75070      -17.10690        0.54890
H         26.55990      -17.82310        0.61710
C         25.82880      -15.74440        0.58230
H         26.65860      -15.05920        0.67710
N         24.53830      -15.28710        0.45550
C         23.73760      -16.39620        0.37310
C         24.18470      -13.88720        0.30880
H         25.03530      -13.35590       -0.12420
H         23.33490      -13.78670       -0.37020
H         23.94270      -13.42350        1.27160
