18
Properties=species:S:1:pos:R:3:forces:R:3 energy=-6416.004073357186 stress="0.0 0.0 0.0 0.0 0.0 0.0 0.0 0.0 0.0" pbc="F F F"
C          4.61440        0.05170       -1.69160
H          5.66980        0.07400       -1.40260
H          4.20500        1.05730       -1.53940
C          3.85730       -0.99040       -0.87440
H          3.99420       -0.79650        0.19860
H          4.32170       -1.97180       -1.06080
C          2.36820       -1.11410       -1.16040
C          1.87930       -0.67140       -2.51900
H          2.36700       -1.24650       -3.31660
H          2.11470        0.38380       -2.69470
H          0.80120       -0.79120       -2.63960
C          1.59510       -1.68600       -0.23430
H          2.07020       -1.96100        0.71130
C          0.13230       -2.00200       -0.31480
H         -0.41430       -1.50970        0.49850
H         -0.03750       -3.07950       -0.19930
H          4.56700       -0.17180       -2.76240
H         -0.32360       -1.69350       -1.25770
