10
Properties=species:S:1:pos:R:3:forces:R:3 energy=-6263.433575151058 stress="0.0 0.0 0.0 0.0 0.0 0.0 0.0 0.0 0.0" pbc="F F F"
O          1.28110       -2.76610        2.18200
H          1.88230       -2.51580        1.46900
C          0.20240       -3.41450        1.57680
H         -0.38380       -3.85790        2.39260
H         -0.42350       -2.68930        1.02750
O          0.64270       -4.38580        0.66260
C          0.21840       -5.69920        0.95730
H          0.68770       -6.35730        0.22310
H          0.53370       -6.00390        1.96530
H         -0.87410       -5.80670        0.88540
