16
Properties=species:S:1:pos:R:3:forces:R:3 energy=-9433.501670507127 stress="0.0 0.0 0.0 0.0 0.0 0.0 0.0 0.0 0.0" pbc="F F F"
C         -2.11340        1.07190       -0.84090
H         -2.64950        1.85300       -0.30750
C         -2.81820        0.02640       -1.43730
H         -3.90200       -0.01180       -1.37190
C         -2.11970       -0.96420       -2.11280
H         -2.65600       -1.78770       -2.58010
C         -0.72800       -0.92560       -2.20130
H         -0.20220       -1.71530       -2.72800
C         -0.03310        0.12810       -1.60880
C         -0.73130        1.12670       -0.92210
H         -0.16320        1.93420       -0.46860
O          1.31990        0.27260       -1.64680
C          2.07600       -0.81280       -2.13630
H          3.12300       -0.54020       -1.99540
H          1.88780       -0.98400       -3.20460
H          1.86090       -1.73600       -1.58250
