19
Properties=species:S:1:pos:R:3:forces:R:3 energy=-12882.612852181097 stress="0.0 0.0 0.0 0.0 0.0 0.0 0.0 0.0 0.0" pbc="F F F"
C         26.79630       -9.44370       -0.33470
N         27.22110      -10.65620        0.15590
H         26.53750      -11.27680        0.56610
N         28.62890      -12.53580        0.24430
C         29.98100      -12.75810        0.12920
H         30.39570      -13.75450        0.20570
C         30.64420      -11.58610       -0.06040
H         31.69090      -11.34600       -0.17900
N         29.67680      -10.59620       -0.07950
C         28.48750      -11.24360        0.07790
O         27.48800       -8.73840       -1.04160
C         25.37090       -9.10210        0.04610
H         24.67430       -9.81210       -0.41260
H         25.14560       -8.09940       -0.31470
H         25.23130       -9.14390        1.13090
C         29.99870       -9.17680       -0.03100
H         31.05280       -9.08690        0.24040
H         29.39490       -8.68770        0.73480
H         29.81310       -8.69150       -0.98900
