19
Properties=species:S:1:pos:R:3:forces:R:3 energy=-12543.377294461076 stress="0.0 0.0 0.0 0.0 0.0 0.0 0.0 0.0 0.0" pbc="F F F"
C          4.39990      -10.40300        0.00110
H          4.92940      -11.35270        0.00070
C          3.01030      -10.39110        0.02320
H          2.46230      -11.32930        0.04590
C          2.32370       -9.18030        0.01690
H          1.23710       -9.16890        0.03500
C          3.03440       -7.98160       -0.01310
H          2.50190       -7.03330       -0.01860
C          4.42330       -7.99080       -0.03670
H          4.97470       -7.05560       -0.06190
C          5.12090       -9.20580       -0.02950
C          7.50970      -10.22240        0.13490
H          7.31450      -11.26920        0.32860
C          8.79320       -9.60010        0.02800
H          9.76200      -10.07240        0.11050
C          8.55430       -8.28640       -0.19950
H          9.19460       -7.42900       -0.34840
O          7.22160       -8.04430       -0.23880
C          6.58630       -9.23410       -0.03980
