19
Properties=species:S:1:pos:R:3:forces:R:3 energy=-12543.368015520362 stress="0.0 0.0 0.0 0.0 0.0 0.0 0.0 0.0 0.0" pbc="F F F"
C          4.42160       -7.98820       -0.02020
H          4.97240       -7.05240       -0.04090
C          3.03240       -7.98110       -0.01010
H          2.49830       -7.03360       -0.01900
C          2.32350       -9.18100        0.00830
H          1.23670       -9.17120        0.01510
C          3.01140      -10.39100        0.01500
H          2.46430      -11.32990        0.02570
C          4.40140      -10.40050        0.00840
H          4.93490      -11.34810        0.00440
C          5.12050       -9.20190       -0.00220
C          7.50310      -10.18240        0.33300
H          7.29630      -11.18340        0.68910
C          8.79080       -9.58530        0.15220
H          9.75660      -10.04070        0.32090
C          8.55910       -8.32140       -0.27650
H          9.20360       -7.49710       -0.54530
O          7.22740       -8.08560       -0.36960
C          6.58630       -9.23270       -0.00840
