22
Properties=species:S:1:pos:R:3:forces:R:3 energy=-13509.202493913215 stress="0.0 0.0 0.0 0.0 0.0 0.0 0.0 0.0 0.0" pbc="F F F"
C         21.66210      -17.40960       -0.39590
H         22.29080      -18.18320       -0.82780
C         20.28750      -17.43770       -0.58290
H         19.84060      -18.23970       -1.16530
C         19.48630      -16.44550       -0.02830
H         18.40970      -16.46500       -0.17310
C         20.07820      -15.42840        0.71340
H         19.46640      -14.64590        1.15320
C         21.45480      -15.39910        0.90140
H         21.87020      -14.58900        1.48530
C         22.27090      -16.39170        0.34840
N         24.44460      -17.42680       -0.06620
C         25.74750      -17.18270        0.25410
H         26.54960      -17.83240       -0.07500
C         25.84270      -16.05140        1.01010
H         26.68440      -15.53770        1.45130
N         24.55990      -15.58130        1.16220
C         23.74140      -16.45530        0.48680
C         24.25210      -14.37790        1.91620
H         25.19180      -13.97340        2.29750
H         23.60380      -14.59600        2.77040
H         23.78620      -13.61710        1.28250
