14
Properties=species:S:1:pos:R:3:forces:R:3 energy=-19198.96493076773 stress="0.0 0.0 0.0 0.0 0.0 0.0 0.0 0.0 0.0" pbc="F F F"
O         21.08110       -6.08500        0.14350
C         21.55150       -3.77040       -0.22610
H         22.00210       -3.12730        0.53630
H         20.46450       -3.67730       -0.19340
H         21.92110       -3.43010       -1.19890
C         21.91890       -5.21680       -0.00340
C         23.83550       -6.86150        0.00340
H         23.17120       -7.71910        0.01360
C         25.25700       -6.91820       -0.00870
H         25.82820       -7.83950       -0.01220
C         25.82550       -5.67950       -0.01490
H         26.87830       -5.43030       -0.02400
S         24.65020       -4.42970       -0.01000
C         23.35790       -5.58090        0.00900
