15
Properties=species:S:1:pos:R:3:forces:R:3 energy=-5346.422095839783 stress="0.0 0.0 0.0 0.0 0.0 0.0 0.0 0.0 0.0" pbc="F F F"
C          4.42960        0.05690       -2.11430
H          5.50380        0.21570       -1.97740
H          4.28180       -0.41990       -3.08950
C          3.85040       -0.80890       -0.99720
H          4.39160       -1.76600       -0.96790
H          4.02680       -0.34660       -0.01550
C          2.37380       -1.08480       -1.16030
H          1.92290       -0.83600       -2.12560
C          1.60420       -1.64720       -0.23190
H          2.04040       -1.89250        0.73990
C          0.15020       -1.97300       -0.40250
H         -0.03130       -3.04630       -0.26760
H         -0.45970       -1.45350        0.34640
H          3.94530        1.03930       -2.14290
H         -0.21250       -1.68810       -1.39610
