20
Properties=species:S:1:pos:R:3:forces:R:3 energy=-13476.287434407728 stress="0.0 0.0 0.0 0.0 0.0 0.0 0.0 0.0 0.0" pbc="F F F"
C         21.67630      -26.61250        0.00070
H         22.22100      -27.55450       -0.01390
C         20.28440      -26.60630        0.01170
H         19.73890      -27.54640        0.02110
C         19.59260      -25.39810        0.00430
H         18.50560      -25.39410        0.00720
C         20.29320      -24.19490       -0.00040
H         19.75490      -23.25050        0.00430
C         21.68500      -24.19990        0.00420
H         22.23930      -23.26390        0.03310
C         22.38190      -25.40870       -0.02520
C         25.77610      -25.00190        1.19400
H         26.23450      -24.62850        2.10770
N         24.44560      -24.95930        1.14840
C         23.87520      -25.41180        0.02580
N         24.51570      -25.93190       -1.02790
C         25.84580      -25.94460       -0.96360
H         26.36170      -26.34890       -1.83240
C         26.54530      -25.48530        0.14430
H         27.62850      -25.50830        0.18940
