20
Properties=species:S:1:pos:R:3:forces:R:3 energy=-13476.479185482698 stress="0.0 0.0 0.0 0.0 0.0 0.0 0.0 0.0 0.0" pbc="F F F"
C         21.68210      -24.19380       -0.00010
H         22.23740      -23.26060       -0.01270
C         20.29260      -24.19550        0.01330
H         19.75140      -23.25280        0.02380
C         19.59590      -25.40130        0.00760
H         18.50930      -25.40140        0.01430
C         20.29260      -26.60690       -0.00310
H         19.75170      -27.54980       -0.00060
C         21.68220      -26.60800       -0.00630
H         22.23810      -27.54080        0.01030
C         22.38430      -25.40090       -0.02170
C         25.80340      -26.42450        0.61160
H         26.28620      -27.27700        1.08600
N         24.47410      -26.44920        0.57520
C         23.87100      -25.40290       -0.00120
N         24.48950      -24.33930       -0.52800
C         25.81920      -24.35400       -0.50840
H         26.31520      -23.49480       -0.95640
C         26.54770      -25.38750        0.06530
H         27.63180      -25.38330        0.08840
