17
Properties=species:S:1:pos:R:3:forces:R:3 energy=-11376.52688260822 stress="0.0 0.0 0.0 0.0 0.0 0.0 0.0 0.0 0.0" pbc="F F F"
C         19.77750      -29.20300        0.63500
N         19.92840      -30.37910       -0.05790
H         19.09460      -30.84680       -0.37920
C         21.23120      -32.52250       -0.19720
H         20.43150      -33.23530       -0.35230
C         22.62710      -32.79790       -0.10160
H         23.10670      -33.76490       -0.17960
C         23.27030      -31.60540        0.11180
H         24.31780      -31.37590        0.24040
N         22.32470      -30.60750        0.13800
H         22.43010      -29.65760        0.46660
C         21.09440      -31.16390       -0.05310
O         20.72120      -28.61160        1.13540
C         18.35280      -28.68950        0.68960
H         17.70090      -29.38930        1.22400
H         18.34940      -27.73070        1.20860
H         17.94560      -28.55650       -0.31860
