18
Properties=species:S:1:pos:R:3:forces:R:3 energy=-6416.035309363563 stress="0.0 0.0 0.0 0.0 0.0 0.0 0.0 0.0 0.0" pbc="F F F"
C          2.93780       -0.30520        0.15930
H          2.53960       -1.11910        0.77500
H          2.09120        0.26410       -0.23880
C          3.81740       -0.85120       -0.97030
H          3.18610       -1.51310       -1.58370
C          4.96890       -1.68190       -0.40500
H          4.58030       -2.49690        0.21530
H          5.62020       -1.06530        0.22670
H          5.58030       -2.12570       -1.19830
C          4.26240        0.27970       -1.86630
H          3.44610        0.92830       -2.19960
C          5.49930        0.55280       -2.27390
H          6.32790       -0.07110       -1.94280
C          5.86370        1.69440       -3.17430
H          6.35100        1.33300       -4.08760
H          6.57450        2.36990       -2.68350
H          3.51770        0.35930        0.81060
H          4.98150        2.27540       -3.46280
