21
Properties=species:S:1:pos:R:3:forces:R:3 energy=-15739.81302333788 stress="0.0 0.0 0.0 0.0 0.0 0.0 0.0 0.0 0.0" pbc="F F F"
C         21.69540      -34.22140       -0.58480
H         22.12760      -35.14020       -0.96070
C         20.32200      -34.02700       -0.59750
H         19.66610      -34.80670       -0.97480
C         19.79860      -32.83390       -0.11640
H         18.72990      -32.64470       -0.10120
C         20.69380      -31.87480        0.34200
H         20.33390      -30.91850        0.71790
N         22.01450      -32.03620        0.34180
C         22.51630      -33.20350       -0.08490
C         26.16900      -32.19760        0.03100
H         26.73920      -31.27310        0.06200
C         24.78180      -32.15060        0.01650
H         24.26750      -31.19630        0.04220
C         24.00500      -33.31430       -0.03180
C         24.70100      -34.52430       -0.03720
C         26.08430      -34.60060       -0.02160
H         26.55580      -35.57850       -0.03490
C         26.82350      -33.42510        0.00850
H         27.90830      -33.46940        0.01930
F         24.02880      -35.69680       -0.03830
