17
Properties=species:S:1:pos:R:3:forces:R:3 energy=-11375.915340851274 stress="0.0 0.0 0.0 0.0 0.0 0.0 0.0 0.0 0.0" pbc="F F F"
O         19.05560      -11.55010       -0.83360
C         19.43760      -10.35530        1.20500
H         19.97200       -9.40000        1.22170
H         19.69070      -10.87550        2.13660
H         18.36330      -10.16870        1.15640
C         19.84360      -11.19900        0.01420
N         21.64310      -12.91120       -0.06510
C         23.00970      -12.88700       -0.01000
H         23.58990      -13.80060       -0.01240
C         23.46380      -11.59810        0.04030
H         24.45560      -11.17060        0.08470
N         22.34580      -10.80240        0.01690
C         21.27440      -11.65100       -0.04360
C         22.35520       -9.35260       -0.01760
H         22.38850       -8.92240        0.99020
H         21.46610       -8.99070       -0.53890
H         23.23670       -9.01670       -0.56890
