10
Properties=species:S:1:pos:R:3:forces:R:3 energy=-6263.539331117111 stress="0.0 0.0 0.0 0.0 0.0 0.0 0.0 0.0 0.0" pbc="F F F"
O         -1.01020       -2.86210        1.21450
H         -0.92010       -2.52670        0.31330
C          0.22000       -3.43080        1.57220
H          0.07720       -3.86330        2.57090
H          1.00250       -2.65790        1.61050
O          0.65580       -4.39180        0.65360
C          0.20570       -5.69740        0.96110
H          0.57160       -6.35420        0.16950
H         -0.89070       -5.74360        0.99430
H          0.60030       -6.04340        1.92840
