20
Properties=species:S:1:pos:R:3:forces:R:3 energy=-12003.074931711439 stress="0.0 0.0 0.0 0.0 0.0 0.0 0.0 0.0 0.0" pbc="F F F"
C         13.26130      -37.19950        0.00090
H         13.81000      -38.13780       -0.00240
C         11.87010      -37.20050       -0.01040
H         11.33070      -38.14390       -0.01910
C         11.17230      -35.99670       -0.01640
H         10.08500      -35.99620       -0.02780
C         11.87130      -34.79280       -0.01320
H         11.33120      -33.84920       -0.02450
C         13.26180      -34.79170        0.00540
H         13.80520      -33.84980        0.00060
C         13.97150      -35.99680        0.02770
C         16.32120      -36.41160       -0.98340
H         16.03200      -36.86440       -1.92180
C         17.64010      -36.12870       -0.53480
H         18.56090      -36.32250       -1.06860
C         17.53240      -35.55860        0.70940
H         18.28690      -35.20020        1.39630
N         16.20090      -35.48120        1.02130
H         15.82230      -35.12430        1.88420
C         15.44750      -36.01510        0.00290
