15
Properties=species:S:1:pos:R:3:forces:R:3 energy=-21142.006089176877 stress="0.0 0.0 0.0 0.0 0.0 0.0 0.0 0.0 0.0" pbc="F F F"
C         28.98790      -15.67500       -0.55590
N         29.29020      -16.93800       -0.06860
H         28.56400      -17.64170       -0.04810
N         30.75320      -18.76020       -0.14090
C         32.09840      -19.04530       -0.06470
H         32.42020      -20.07940       -0.11780
C         32.92550      -17.98190        0.07550
H         34.00480      -17.98000        0.15500
S         32.00860      -16.51470        0.09710
C         30.57400      -17.47930       -0.04270
O         29.85620      -14.85750       -0.77640
C         27.50790      -15.41660       -0.73400
H         26.97420      -15.57030        0.20910
H         27.07840      -16.09210       -1.48130
H         27.37270      -14.38690       -1.06290
