18
Properties=species:S:1:pos:R:3:forces:R:3 energy=-21768.60383067068 stress="0.0 0.0 0.0 0.0 0.0 0.0 0.0 0.0 0.0" pbc="F F F"
C         21.79820      -23.56910       -0.00890
H         22.32200      -24.52130       -0.01500
C         20.40820      -23.54420       -0.00830
H         19.85530      -24.47950       -0.01870
C         19.72750      -22.32950        0.00400
H         18.64080      -22.31380        0.00310
C         20.44190      -21.13420        0.01920
H         19.91550      -20.18330        0.03160
C         21.83090      -21.15440        0.02110
H         22.40390      -20.23200        0.04560
C         22.51830      -22.37180        0.00640
N         24.70210      -21.32480        0.34480
C         26.04190      -21.59150        0.24230
H         26.75330      -20.82220        0.51690
C         26.36820      -22.83080       -0.21160
H         27.35140      -23.24830       -0.37140
S         24.93760      -23.72600       -0.52670
C         23.99300      -22.35410       -0.01810
