10
Properties=species:S:1:pos:R:3:forces:R:3 energy=-6263.2951385830265 stress="0.0 0.0 0.0 0.0 0.0 0.0 0.0 0.0 0.0" pbc="F F F"
O         -0.24950       -5.47950        0.85220
H         -0.18410       -6.05050        0.07800
C          0.57980       -4.35140        0.63580
H          1.63910       -4.64430        0.57090
H          0.31340       -3.83250       -0.29420
C          0.36720       -3.36810        1.78520
H         -0.49180       -3.72490        2.36830
H          1.24660       -3.35440        2.44750
O          0.12090       -2.08500        1.23730
H         -0.10760       -1.49050        1.96120
