11
Properties=species:S:1:pos:R:3:forces:R:3 energy=-5940.616201914981 stress="0.0 0.0 0.0 0.0 0.0 0.0 0.0 0.0 0.0" pbc="F F F"
F         13.26900      -26.48830        0.00620
C         14.39680      -25.68230        0.00530
H         14.35320      -25.02260       -0.87070
H         14.36490      -25.05830        0.90850
C         15.64680      -26.54080       -0.00660
H         15.53700      -27.29960        0.77740
H         15.70850      -27.07520       -0.96140
C         16.90650      -25.71450        0.23800
H         16.85730      -25.19760        1.20350
H         17.04500      -24.95430       -0.54010
H         17.79960      -26.34710        0.24510
