20
Properties=species:S:1:pos:R:3:forces:R:3 energy=-12003.072832267404 stress="0.0 0.0 0.0 0.0 0.0 0.0 0.0 0.0 0.0" pbc="F F F"
C         13.23690      -37.22420        0.01160
H         13.76300      -38.17570        0.02310
C         11.84660      -37.19690        0.02250
H         11.28890      -38.13010        0.03700
C         11.17050      -35.98010        0.00950
H         10.08340      -35.96010        0.01470
C         11.89110      -34.79010       -0.01110
H         11.37000      -33.83640       -0.02320
C         13.28200      -34.81710       -0.01500
H         13.84810      -33.88920       -0.02890
C         13.97010      -36.03320        0.00410
C         16.36890      -35.67610        0.92990
H         16.13330      -35.23400        1.88840
C         17.66300      -35.97220        0.42050
H         18.60840      -35.79790        0.91660
C         17.49360      -36.52490       -0.82440
H         18.21230      -36.88520       -1.54780
N         16.14880      -36.57940       -1.07900
H         15.72840      -36.91890       -1.92950
C         15.44750      -36.04820       -0.02240
