11
Properties=species:S:1:pos:R:3:forces:R:3 energy=-7300.842318824824 stress="0.0 0.0 0.0 0.0 0.0 0.0 0.0 0.0 0.0" pbc="F F F"
C          1.51550       -2.87170        2.21460
H          1.13620       -2.01550        2.77450
H          1.90580       -3.62370        2.91470
O          0.41240       -3.37600        1.46780
C          0.73470       -4.35100        0.55690
H          2.31670       -2.55180        1.53990
C          0.21350       -5.70440        0.96020
H         -0.84880       -5.63890        1.21080
H          0.37600       -6.41300        0.14810
O          1.41260       -4.13160       -0.41150
H          0.74860       -6.04530        1.85350
