16
Properties=species:S:1:pos:R:3:forces:R:3 energy=-11813.11669575028 stress="0.0 0.0 0.0 0.0 0.0 0.0 0.0 0.0 0.0" pbc="F F F"
C         12.63050      -10.66590       -1.11570
N         13.47310      -10.74430       -0.02230
H         13.01990      -10.53640        0.85890
N         14.81090      -12.77270        0.00700
C         16.16570      -12.98220        0.01500
H         16.57420      -13.98490        0.02110
C         16.84580      -11.80040        0.01790
H         17.90190      -11.56920        0.02520
N         15.87100      -10.83090        0.01590
H         16.00320       -9.83210       -0.00100
C         14.66940      -11.47040        0.00820
O         11.50430      -10.23090       -0.98900
C         13.21500      -11.12040       -2.43400
H         14.21920      -10.71400       -2.58640
H         13.30170      -12.21160       -2.44320
H         12.54640      -10.80130       -3.23430
