22
Properties=species:S:1:pos:R:3:forces:R:3 energy=-15303.436656754327 stress="0.0 0.0 0.0 0.0 0.0 0.0 0.0 0.0 0.0" pbc="F F F"
C         12.81050      -33.80070       -1.13310
H         13.33740      -34.21010       -1.99030
C         11.42260      -33.71970       -1.14630
H         10.87400      -34.07250       -2.01540
C         10.73680      -33.20190       -0.05190
H          9.65150      -33.14630       -0.06190
C         11.45060      -32.75830        1.05780
H         10.92620      -32.35180        1.91870
C         12.83880      -32.82030        1.06280
H         13.39010      -32.47550        1.93500
C         13.53820      -33.34440       -0.02950
C         17.14080      -32.24150        0.46890
H         17.66610      -31.37220        0.85380
C         15.75150      -32.26460        0.47040
H         15.20640      -31.39850        0.83770
C         15.02840      -33.35870       -0.01840
C         15.78250      -34.42930       -0.50330
C         17.16800      -34.43950       -0.50750
H         17.68390      -35.31030       -0.89930
C         17.85200      -33.33360       -0.01840
H         18.93790      -33.32640       -0.01960
F         15.15370      -35.52590       -0.97590
