22
Properties=species:S:1:pos:R:3:forces:R:3 energy=-13046.15571531884 stress="0.0 0.0 0.0 0.0 0.0 0.0 0.0 0.0 0.0" pbc="F F F"
C          2.19830       -3.43410       -0.92420
H          1.80830       -4.41060       -0.65420
C          1.44420       -2.29350       -0.66470
H          0.46670       -2.37430       -0.19480
C          1.94350       -1.03520       -1.00240
C          1.15980        0.22710       -0.74340
C          3.19330       -0.92810       -1.61320
H          3.55640        0.05710       -1.89520
C          3.95000       -2.06760       -1.86080
H          4.92740       -1.97760       -2.32920
C          3.45330       -3.32220       -1.51640
H          4.04240       -4.21470       -1.71240
N          0.84140        0.50910        0.56010
C          0.01110        1.66780        0.82300
H         -0.33760        2.06460       -0.13030
H         -0.84770        1.38950        1.44500
H          0.57900        2.44700        1.34960
C          1.39220       -0.15110        1.72640
H          2.12800       -0.90180        1.44150
H          1.88860        0.58400        2.37260
H          0.59870       -0.63200        2.31290
O          0.86490        0.97930       -1.66160
