18
Properties=species:S:1:pos:R:3:forces:R:3 energy=-6416.038726420256 stress="0.0 0.0 0.0 0.0 0.0 0.0 0.0 0.0 0.0" pbc="F F F"
C          4.50840       -1.58370        0.24470
H          5.56770       -1.31360        0.29950
H          4.45130       -2.67020        0.11210
C          3.83700       -0.83660       -0.90800
H          4.38340       -1.05140       -1.83620
H          3.94880        0.24750       -0.75540
C          2.37070       -1.12920       -1.15510
C          1.88960       -0.70240       -2.52160
H          2.07360        0.36820       -2.68250
H          0.82330       -0.88050       -2.67430
H          2.43240       -1.24090       -3.30890
C          1.58170       -1.66770       -0.22210
H          2.03400       -1.94560        0.72800
C          0.11480       -1.96090       -0.31430
H         -0.43310       -1.44300        0.48280
H         -0.07510       -3.03270       -0.17550
H          4.06010       -1.33220        1.21220
H         -0.32350       -1.66410       -1.26910
