14
Properties=species:S:1:pos:R:3:forces:R:3 energy=-9710.284098117007 stress="0.0 0.0 0.0 0.0 0.0 0.0 0.0 0.0 0.0" pbc="F F F"
C         -0.12810       -0.09250       -0.05070
H         -0.19870        0.40490       -1.02570
H         -0.24090        0.68350        0.71520
C          1.22530       -0.79390        0.06440
H          1.29250       -1.56440       -0.71060
H          1.29190       -1.31450        1.02870
C          2.38650        0.18720       -0.07220
H          2.36160        0.69190       -1.04450
H          3.35140       -0.32180        0.01570
H          2.34270        0.95870        0.70540
C         -1.31490       -1.02630        0.03810
H         -1.56450       -1.34280        1.05740
F         -1.08180       -2.15700       -0.69560
F         -2.41360       -0.42470       -0.50210
