17
Properties=species:S:1:pos:R:3:forces:R:3 energy=-12850.169874697762 stress="0.0 0.0 0.0 0.0 0.0 0.0 0.0 0.0 0.0" pbc="F F F"
C         15.71120      -21.96990        0.04990
H         14.75860      -21.45330        0.10100
C         15.78830      -23.36140        0.01790
H         14.88690      -23.96850        0.04360
C         17.03030      -23.96900       -0.03380
H         17.12590      -25.05240       -0.04920
C         18.17170      -23.15340       -0.07800
N         18.11120      -21.82320       -0.06510
C         16.90040      -21.25900        0.01410
H         16.88980      -20.17110        0.03260
N         19.45140      -23.73260       -0.01320
H         19.46040      -24.67520        0.35640
C         20.41000      -23.69050       -1.04990
N         20.44410      -22.53000       -1.75600
H         21.22440      -22.41470       -2.38290
H         19.95310      -21.71490       -1.41520
O         21.15140      -24.63910       -1.22850
