22
Properties=species:S:1:pos:R:3:forces:R:3 energy=-12603.519780518358 stress="0.0 0.0 0.0 0.0 0.0 0.0 0.0 0.0 0.0" pbc="F F F"
C         16.14450      -21.99580       -0.05850
H         15.63900      -22.95400       -0.12170
C         17.53390      -21.99680       -0.05140
H         18.06570      -22.94340       -0.10850
C         18.23920      -20.80140        0.02780
H         19.32530      -20.80110        0.03340
C         17.53240      -19.60630        0.09970
H         18.06310      -18.65940        0.16230
C         16.14310      -19.60820        0.09240
H         15.63630      -18.65020        0.15040
C         15.41300      -20.80220        0.01320
C         11.79460      -21.99840       -0.08110
H         11.26390      -22.94530       -0.14370
C         13.18390      -21.99660       -0.07380
H         13.69070      -22.95450       -0.13180
C         13.91400      -20.80260        0.00540
C         13.18250      -19.60900        0.07710
H         13.68810      -18.65080        0.14030
C         11.79320      -19.60790        0.07000
H         11.26130      -18.66130        0.12710
C         11.08790      -20.80340       -0.00920
H         10.00170      -20.80370       -0.01480
