19
Properties=species:S:1:pos:R:3:forces:R:3 energy=-12543.3513340968 stress="0.0 0.0 0.0 0.0 0.0 0.0 0.0 0.0 0.0" pbc="F F F"
C          4.40670      -10.39560       -0.00530
H          4.94730      -11.33950       -0.01260
C          3.01670      -10.39250        0.01000
H          2.47310      -11.33340        0.02190
C          2.32410       -9.18510        0.01350
H          1.23730       -9.17990        0.02790
C          3.02750       -7.98200       -0.00110
H          2.48920       -7.03690        0.00230
C          4.41670       -7.98350       -0.02150
H          4.96410       -7.04550       -0.03810
C          5.12030       -9.19420       -0.02920
C          7.48930      -10.11580        0.49190
H          7.26260      -11.05560        0.97860
C          8.78430       -9.54930        0.26780
H          9.74320       -9.97660        0.52640
C          8.56880       -8.35710       -0.33880
H          9.22230       -7.57740       -0.70190
O          7.24040       -8.13640       -0.50030
C          6.58660       -9.22490       -0.00740
