14
Properties=species:S:1:pos:R:3:forces:R:3 energy=-31478.05648187902 stress="0.0 0.0 0.0 0.0 0.0 0.0 0.0 0.0 0.0" pbc="F F F"
C          1.98790      -24.68490       -0.88900
H          0.93920      -24.76090       -1.14010
C          2.81780      -25.66040       -0.44260
H          2.53050      -26.68890       -0.26890
N          4.11430      -25.28420       -0.19910
C          4.27730      -24.03240       -0.46370
S          2.84610      -23.20300       -1.02420
S          5.90430      -23.30740       -0.15690
C          5.81340      -21.69900       -0.90840
H          5.66690      -21.81620       -1.98280
H          6.77840      -21.22850       -0.71110
H          5.01140      -21.12470       -0.44360
O          6.87690      -24.09180       -0.90300
O          6.02420      -23.11670        1.28240
