14
Properties=species:S:1:pos:R:3:forces:R:3 energy=-4310.46073700137 stress="0.0 0.0 0.0 0.0 0.0 0.0 0.0 0.0 0.0" pbc="F F F"
C          0.13800        0.16370        0.17470
H          0.46140        0.72040        1.06220
H         -0.63580        0.75430       -0.32660
C         -0.37210       -1.22810        0.54560
H         -1.26220       -1.15190        1.18150
C          0.69440       -2.10560        1.22410
H          0.59680       -2.04740        2.31470
H          1.68750       -1.69740        0.99070
C          0.66000       -3.56220        0.76340
H         -0.30330       -4.03180        0.99460
H          1.44470       -4.15420        1.24580
H          0.80870       -3.62730       -0.32070
H         -0.70470       -1.72630       -0.37560
H          0.99690        0.09170       -0.50250
