13
Properties=species:S:1:pos:R:3:forces:R:3 energy=-18603.276403384738 stress="0.0 0.0 0.0 0.0 0.0 0.0 0.0 0.0 0.0" pbc="F F F"
C         -1.11270       -1.38230       -0.59580
H         -0.94660       -0.77510        0.29630
H         -0.36830       -1.16640       -1.36430
H         -2.11930       -1.21610       -0.98350
S         -0.99080       -3.10420       -0.16980
O         -1.79940       -3.32850        1.02000
N          0.63310       -3.24960        0.24230
H          0.75780       -2.84770        1.16860
O         -1.21420       -3.88100       -1.37740
C          1.15350       -4.62640        0.19930
H          0.69400       -5.29690        0.93820
H          0.98570       -5.02720       -0.80170
H          2.22900       -4.57080        0.38120
