16
Properties=species:S:1:pos:R:3:forces:R:3 energy=-9433.461437598964 stress="0.0 0.0 0.0 0.0 0.0 0.0 0.0 0.0 0.0" pbc="F F F"
C         -2.12370       -0.96230       -2.11530
H         -2.66040       -1.78200       -2.58820
C         -2.82280        0.03270       -1.44470
H         -3.90740        0.00080       -1.38940
C         -2.11780        1.07470       -0.84370
H         -2.65380        1.86150       -0.31860
C         -0.73370        1.12220       -0.91350
H         -0.16590        1.93270       -0.46510
C         -0.03560        0.11120       -1.57860
C         -0.73210       -0.93130       -2.18880
H         -0.19820       -1.72140       -2.70830
O          1.31710        0.26640       -1.66110
C          2.09440       -0.90490       -1.79950
H          3.12680       -0.61060       -1.60260
H          2.02870       -1.31500       -2.81630
H          1.78870       -1.67750       -1.08270
