19
Properties=species:S:1:pos:R:3:forces:R:3 energy=-21331.97155870489 stress="0.0 0.0 0.0 0.0 0.0 0.0 0.0 0.0 0.0" pbc="F F F"
C         21.77010      -10.94040        0.00700
H         22.29940      -11.88950        0.00100
C         20.38020      -10.92470        0.00630
H         19.83420      -11.86430        0.01200
C         19.68960       -9.71560       -0.00150
H         18.60280       -9.70760       -0.00030
C         20.39780       -8.51780       -0.01020
H         19.86780       -7.56890       -0.01530
C         21.78820       -8.53160       -0.01510
H         22.33420       -7.59140       -0.00660
C         22.49190       -9.74030       -0.00490
C         24.80470       -8.80450       -0.56840
H         24.44030       -7.94980       -1.12780
C         26.18660       -9.10470       -0.38020
H         26.99860       -8.48720       -0.74840
C         26.37600      -10.25870        0.31680
H         27.31200      -10.71890        0.60410
S         24.88270      -10.99680        0.74240
C         23.96910       -9.73380       -0.01400
