22
Properties=species:S:1:pos:R:3:forces:R:3 energy=-13046.183125132811 stress="0.0 0.0 0.0 0.0 0.0 0.0 0.0 0.0 0.0" pbc="F F F"
C          2.12010       -3.43150       -1.06920
H          1.66040       -4.40530       -0.91870
C          1.38780       -2.27620       -0.82500
H          0.35220       -2.32940       -0.49990
C          1.97520       -1.02190       -0.99230
C          1.12250        0.18910       -0.72060
C          3.28670       -0.93410       -1.46220
H          3.73770        0.04020       -1.63400
C          4.01400       -2.09170       -1.72270
H          5.03820       -2.01530       -2.07500
C          3.43660       -3.34120       -1.51560
H          4.00930       -4.24410       -1.71080
N          1.72140        1.27760       -0.13390
C          0.91140        2.47450       -0.00090
H          0.17890        2.49880       -0.80740
H          1.55540        3.35720       -0.05660
H          0.37130        2.49340        0.95700
C          2.84200        1.19980        0.78430
H          3.58030        1.97190        0.53710
H          3.32300        0.22280        0.74330
H          2.51050        1.36990        1.81850
O         -0.06410        0.19470       -1.01720
