17
Properties=species:S:1:pos:R:3:forces:R:3 energy=-8893.088332710404 stress="0.0 0.0 0.0 0.0 0.0 0.0 0.0 0.0 0.0" pbc="F F F"
C          1.53850       -1.86560       -2.29190
H          1.72480       -2.47930       -3.17010
C          2.42780       -1.89030       -1.22140
H          3.31370       -2.51820       -1.25480
C          2.16320       -1.10330       -0.10530
H          2.84410       -1.11370        0.74280
C          1.03280       -0.29560       -0.05650
H          0.83030        0.30400        0.82730
C          0.14640       -0.25430       -1.13820
C          0.40470       -1.06490       -2.25120
H         -0.29260       -1.06610       -3.08790
N         -1.04210        0.49150       -1.06700
H         -1.56450        0.40920       -1.92960
C         -0.97400        1.87440       -0.62300
H         -0.67810        1.92080        0.42990
H         -0.27470        2.50020       -1.20010
H         -1.97580        2.30850       -0.69400
