21
Properties=species:S:1:pos:R:3:forces:R:3 energy=-13040.014653026643 stress="0.0 0.0 0.0 0.0 0.0 0.0 0.0 0.0 0.0" pbc="F F F"
C         21.83010      -22.00380        0.00200
H         22.36520      -22.95050       -0.01310
C         20.43970      -22.00630       -0.00540
H         19.90310      -22.95160       -0.00610
C         19.73990      -20.80310       -0.00410
H         18.65330      -20.80330       -0.00450
C         20.43850      -19.59860       -0.00760
H         19.89860      -18.65500       -0.01330
C         21.82800      -19.59630       -0.01110
H         22.38170      -18.66230       -0.03100
C         22.53810      -20.79930        0.00460
C         26.14780      -21.75510        0.61200
H         26.73590      -22.53880        1.08280
C         24.76140      -21.80320        0.64720
H         24.25180      -22.60920        1.16780
C         24.02890      -20.78520        0.02770
N         24.62390      -19.74360       -0.56690
C         25.95480      -19.72160       -0.61130
H         26.39620      -18.86720       -1.12200
C         26.76680      -20.69630       -0.04150
H         27.84770      -20.61860       -0.10350
