12
Properties=species:S:1:pos:R:3:forces:R:3 energy=-6760.865324364239 stress="0.0 0.0 0.0 0.0 0.0 0.0 0.0 0.0 0.0" pbc="F F F"
C          0.32830       -1.93130        0.86060
H          0.39520       -1.24960        1.71290
H         -0.52450       -1.64190        0.23300
H          1.23870       -1.85220        0.26510
N          0.22980       -3.29810        1.32920
H         -0.52650       -3.52330        1.95670
C          0.78850       -4.32930        0.62250
C          0.22400       -5.70060        0.94660
H         -0.11570       -5.78570        1.98420
H          0.99580       -6.44700        0.75460
H         -0.62520       -5.91390        0.28780
O          1.64780       -4.15520       -0.22480
