22
Properties=species:S:1:pos:R:3:forces:R:3 energy=-13509.161428051957 stress="0.0 0.0 0.0 0.0 0.0 0.0 0.0 0.0 0.0" pbc="F F F"
C         21.64470      -17.44640       -0.39750
H         22.26270      -18.23440       -0.82130
C         20.26240      -17.46980       -0.55000
H         19.79410      -18.28210       -1.10020
C         19.48340      -16.45620        0.00030
H         18.40270      -16.47450       -0.11950
C         20.08860      -15.42120        0.70690
H         19.48380      -14.62900        1.14110
C         21.47090      -15.39730        0.86000
H         21.95510      -14.59360        1.40980
C         22.25880      -16.40640        0.30280
N         24.40370      -16.93370        1.45050
C         25.72250      -16.64450        1.19800
H         26.50910      -16.98540        1.85830
C         25.84130      -15.90680        0.05480
H         26.69250      -15.49140       -0.46640
N         24.55920      -15.73740       -0.41540
C         23.73330      -16.38010        0.46590
C         24.17830      -14.98710       -1.59860
H         24.78650      -15.30800       -2.44890
H         24.31500      -13.91220       -1.43980
H         23.12940      -15.18130       -1.82510
