18
Properties=species:S:1:pos:R:3:forces:R:3 energy=-6416.077084311517 stress="0.0 0.0 0.0 0.0 0.0 0.0 0.0 0.0 0.0" pbc="F F F"
C          4.32570        0.52320       -1.16250
H          5.38030        0.63260       -0.88990
H          4.22940        0.77240       -2.22430
C          3.83440       -0.89690       -0.87600
H          4.41440       -1.59440       -1.49950
H          4.04650       -1.16370        0.16710
C          2.36080       -1.10730       -1.15140
C          1.87920       -0.66690       -2.51300
H          2.56890       -1.01170       -3.29370
H          0.88520       -1.04900       -2.75730
H          1.83970        0.42730       -2.58060
C          1.58750       -1.67630       -0.22390
H          2.05810       -1.92730        0.72990
C          0.12780       -2.00840       -0.31920
H         -0.04110       -3.07520       -0.13010
H         -0.44650       -1.45970        0.43720
H          3.75120        1.26020       -0.59050
H         -0.29940       -1.77200       -1.29560
