19
Properties=species:S:1:pos:R:3:forces:R:3 energy=-21331.937033063703 stress="0.0 0.0 0.0 0.0 0.0 0.0 0.0 0.0 0.0" pbc="F F F"
C         21.76580      -10.94750        0.00640
H         22.29820      -11.89480        0.01080
C         20.37590      -10.92540        0.00830
H         19.82230      -11.86060        0.01150
C         19.69490       -9.71070        0.00330
H         18.60780       -9.69620        0.00260
C         20.40830       -8.51640       -0.00250
H         19.88050       -7.56630       -0.00860
C         21.79950       -8.53700        0.00170
H         22.35670       -7.60350       -0.00510
C         22.49020       -9.75150        0.00920
C         24.80580       -9.19260        0.91880
H         24.42450       -8.64530        1.77370
C         26.18750       -9.41740        0.64030
H         27.00160       -9.05500        1.25860
C         26.37100      -10.14340       -0.49830
H         27.30280      -10.45850       -0.95030
S         24.87440      -10.56850       -1.23580
C         23.97050       -9.74930       -0.00720
