22
Properties=species:S:1:pos:R:3:forces:R:3 energy=-13509.25184636441 stress="0.0 0.0 0.0 0.0 0.0 0.0 0.0 0.0 0.0" pbc="F F F"
C         21.64590      -17.44740       -0.38900
H         22.25750      -18.25310       -0.78770
C         20.26510      -17.46280       -0.54630
H         19.79290      -18.27820       -1.08820
C         19.48660      -16.44320       -0.00420
H         18.40680      -16.45850       -0.12540
C         20.09610      -15.41120        0.70350
H         19.49640      -14.61750        1.13940
C         21.47800      -15.38910        0.85060
H         21.95120      -14.58800        1.41360
C         22.26780      -16.39570        0.28510
N         24.43920      -17.45370        0.83410
C         25.73290      -17.01040        0.92030
H         26.53370      -17.66550        1.23760
C         25.81360      -15.69650        0.55560
H         26.64000      -15.00410        0.48360
N         24.53050      -15.31520        0.24010
C         23.73680      -16.41180        0.43950
C         24.15070      -14.01150       -0.26890
H         24.93260      -13.64860       -0.94050
H         24.01470      -13.28300        0.53860
H         23.22150      -14.09970       -0.83530
