14
Properties=species:S:1:pos:R:3:forces:R:3 energy=-8266.767370790636 stress="0.0 0.0 0.0 0.0 0.0 0.0 0.0 0.0 0.0" pbc="F F F"
C          2.08080       -3.37200       -0.98160
H          2.45070       -2.40930       -1.34330
H          2.91440       -4.08670       -0.94150
H          1.33760       -3.75080       -1.68540
N          1.42920       -3.17740        0.30750
H          2.05210       -2.78600        1.00230
C          0.65980       -4.23320        0.78440
N          0.77650       -4.46270        2.14510
H          1.00260       -3.65860        2.71410
C         -0.15210       -5.40480        2.74760
H         -0.13760       -6.33010        2.17060
H          0.17210       -5.61760        3.76880
H         -1.18450       -5.03290        2.76230
O         -0.00670       -4.94450        0.05240
