21
Properties=species:S:1:pos:R:3:forces:R:3 energy=-13945.431522530647 stress="0.0 0.0 0.0 0.0 0.0 0.0 0.0 0.0 0.0" pbc="F F F"
C         29.18780      -17.03680       -1.50840
H         29.69980      -17.60150       -2.28250
C         27.80670      -17.06400       -1.37800
H         27.19780      -17.65770       -2.05420
C         27.22290      -16.31200       -0.36680
H         26.14660      -16.29430       -0.22210
C         28.05530      -15.57320        0.46840
H         27.63610      -14.97130        1.27260
N         29.38250      -15.54320        0.36100
C         29.93660      -16.26780       -0.61380
N         32.28990      -16.72280        0.09840
C         33.51450      -16.50060       -0.48020
H         34.42930      -16.82310       -0.00120
C         33.37080      -15.84730       -1.67220
H         34.07880      -15.49780       -2.41040
N         32.01970      -15.65910       -1.83540
C         31.41900      -16.20900       -0.73840
C         31.37620      -14.99250       -2.95240
H         32.03040      -14.19550       -3.31420
H         31.16840      -15.68490       -3.77590
H         30.43850      -14.54610       -2.61440
