22
Properties=species:S:1:pos:R:3:forces:R:3 energy=-13046.182930938978 stress="0.0 0.0 0.0 0.0 0.0 0.0 0.0 0.0 0.0" pbc="F F F"
C          2.18680       -3.44560       -0.98380
H          1.78590       -4.42910       -0.75860
C          1.42370       -2.31230       -0.71830
H          0.42300       -2.41460       -0.30590
C          1.93750       -1.04310       -0.98910
C          1.15020        0.21860       -0.75180
C          3.20430       -0.92140       -1.56110
H          3.57590        0.07030       -1.80510
C          3.97180       -2.05250       -1.81050
H          4.96510       -1.94830       -2.24050
C          3.46520       -3.31710       -1.51950
H          4.06310       -4.20290       -1.71780
N          0.43220        0.31380        0.41600
C         -0.39710        1.49420        0.57570
H         -0.71510        1.83950       -0.40770
H         -1.27220        1.24420        1.18290
H          0.15090        2.31040        1.06870
C          0.80180       -0.33990        1.65750
H         -0.09570       -0.73620        2.14640
H          1.49980       -1.15830        1.48410
H          1.27810        0.37040        2.34860
O          1.15970        1.12450       -1.57330
