18
Properties=species:S:1:pos:R:3:forces:R:3 energy=-6416.037401510519 stress="0.0 0.0 0.0 0.0 0.0 0.0 0.0 0.0 0.0" pbc="F F F"
C          3.15010       -0.26690        0.28710
H          2.75650       -1.06450        0.92670
H          2.31990        0.39500        0.01910
C          3.82130       -0.84600       -0.96270
H          3.05710       -1.41570       -1.51250
C          4.94300       -1.80900       -0.57600
H          4.54720       -2.62470        0.03890
H          5.71420       -1.29680        0.01230
H          5.42090       -2.25150       -1.45720
C          4.26200        0.27660       -1.87000
H          3.44680        0.93490       -2.18660
C          5.49880        0.55130       -2.27710
H          6.32490       -0.08150       -1.95700
C          5.86490        1.69960       -3.16860
H          6.34450        1.34410       -4.08840
H          6.58250        2.36580       -2.67530
H          3.87080        0.31410        0.87380
H          4.98460        2.28860       -3.44660
