18
Properties=species:S:1:pos:R:3:forces:R:3 energy=-6416.019193142632 stress="0.0 0.0 0.0 0.0 0.0 0.0 0.0 0.0 0.0" pbc="F F F"
C          4.62310       -2.20240       -0.57460
H          5.67500       -1.96850       -0.38020
H          4.23230       -2.71810        0.30870
C          3.83730       -0.91980       -0.88260
H          3.93300       -0.23210       -0.02950
H          4.30230       -0.41000       -1.73480
C          2.36390       -1.14150       -1.17570
C          1.87670       -0.68670       -2.53010
H          2.41820       -1.21220       -3.32710
H          0.81000       -0.86560       -2.68000
H          2.05880        0.38660       -2.66880
C          1.58980       -1.70330       -0.24460
H          2.06890       -2.00900        0.68780
C          0.11560       -1.96780       -0.30980
H         -0.09400       -3.03500       -0.16600
H         -0.40850       -1.43580        0.49410
H          4.58010       -2.90300       -1.41510
H         -0.33140       -1.66290       -1.25830
