17
Properties=species:S:1:pos:R:3:forces:R:3 energy=-12850.299750187238 stress="0.0 0.0 0.0 0.0 0.0 0.0 0.0 0.0 0.0" pbc="F F F"
C         15.74670      -21.96000       -0.00910
H         14.79700      -21.43470       -0.01490
C         15.80820      -23.35140       -0.00800
H         14.89710      -23.94430       -0.01020
C         17.03970      -23.98620        0.00420
H         17.14220      -25.06370        0.02330
C         18.18060      -23.17760        0.00480
N         18.14560      -21.84430        0.00100
C         16.94420      -21.26070       -0.00230
H         16.94970      -20.17190       -0.00270
N         19.47810      -23.71030       -0.01880
H         20.17450      -22.97690       -0.06400
C         19.86370      -24.92280        0.54440
N         21.23750      -25.07640        0.57770
H         21.51580      -26.01470        0.82540
H         21.78480      -24.66050       -0.16220
O         19.09790      -25.75670        0.98780
