11
Properties=species:S:1:pos:R:3:forces:R:3 energy=-7301.119958771441 stress="0.0 0.0 0.0 0.0 0.0 0.0 0.0 0.0 0.0" pbc="F F F"
C         -0.16490       -2.17060        0.57310
H         -0.56880       -1.46800        1.30270
H         -0.90540       -2.36770       -0.21080
O          0.13070       -3.36040        1.30350
C          0.74160       -4.34260        0.59240
H          0.74440       -1.76800        0.11780
C          0.20340       -5.70340        0.95240
H          0.23550       -5.84970        2.03580
H          0.79170       -6.46980        0.44820
O          1.55340       -4.11850       -0.26950
H         -0.84130       -5.77370        0.63230
