14
Properties=species:S:1:pos:R:3:forces:R:3 energy=-19198.83975570404 stress="0.0 0.0 0.0 0.0 0.0 0.0 0.0 0.0 0.0" pbc="F F F"
O         21.10300       -5.81060        0.58830
C         21.54670       -4.13320       -1.05860
H         21.95550       -4.36700       -2.04770
H         20.45890       -4.06110       -1.10450
H         21.96910       -3.16910       -0.75390
C         21.92670       -5.20760       -0.06700
C         23.84070       -6.86680       -0.01110
H         23.17430       -7.72330       -0.01350
C         25.26390       -6.93100       -0.02200
H         25.83170       -7.85430       -0.04690
C         25.83570       -5.69490        0.00330
H         26.88890       -5.44600        0.00360
S         24.66410       -4.44000        0.03200
C         23.36810       -5.58640        0.03230
