14
Properties=species:S:1:pos:R:3:forces:R:3 energy=-10307.018495727296 stress="0.0 0.0 0.0 0.0 0.0 0.0 0.0 0.0 0.0" pbc="F F F"
O          5.58410       -9.96920        0.19140
C          4.64650      -12.16490       -0.10810
H          4.63780      -12.52920       -1.14100
H          3.69140      -11.69240        0.12780
H          4.82040      -13.03820        0.52890
C          5.76050      -11.16670        0.05840
N          7.54160      -12.94330        0.01750
C          8.90850      -12.88520        0.00030
H          9.51410      -13.78260       -0.00290
C          9.33890      -11.58140       -0.00860
H         10.32710      -11.14370       -0.02040
N          8.20150      -10.82670        0.00180
H          8.10620       -9.82190        0.02770
C          7.14740      -11.68650        0.00990
