18
Properties=species:S:1:pos:R:3:forces:R:3 energy=-12979.878481451613 stress="0.0 0.0 0.0 0.0 0.0 0.0 0.0 0.0 0.0" pbc="F F F"
C          4.47090      -23.15910        0.00690
H          5.01240      -24.10220        0.01530
C          3.07970      -23.14640       -0.00550
H          2.52940      -24.08400       -0.01160
C          2.39410      -21.93550       -0.00610
H          1.30670      -21.92690       -0.01440
C          3.09880      -20.73510        0.00710
H          2.56360      -19.78880        0.01040
C          4.48960      -20.74530        0.01600
H          5.04730      -19.81210        0.02430
C          5.18030      -21.95820        0.00560
N          7.45460      -22.16500        1.03000
C          8.72530      -22.01410        0.49510
H          9.61200      -22.12720        1.10340
C          8.62410      -21.72180       -0.81850
H          9.32020      -21.52750       -1.62030
O          7.29810      -21.67940       -1.13370
C          6.65970      -21.96760        0.02860
