18
Properties=species:S:1:pos:R:3:forces:R:3 energy=-6416.00806692306 stress="0.0 0.0 0.0 0.0 0.0 0.0 0.0 0.0 0.0" pbc="F F F"
C          2.42830       -1.34590       -1.25780
H          2.15930       -2.16940       -0.58710
H          2.34190       -1.70290       -2.28990
C          3.83810       -0.83210       -0.95870
H          4.56030       -1.65080       -1.09760
C          3.92440       -0.36440        0.50260
H          3.64450       -1.17140        1.18930
H          3.24280        0.47840        0.67090
H          4.93560       -0.03310        0.76090
C          4.21780        0.28410       -1.90330
H          3.41850        0.96590       -2.20510
C          5.46500        0.53860       -2.29270
H          6.25470       -0.15280       -1.99090
C          5.89020        1.69830       -3.14190
H          6.36560        1.35120       -4.06650
H          6.62510        2.31920       -2.61620
H          1.69400       -0.54400       -1.11290
H          5.03990        2.33330       -3.41290
