14
Properties=species:S:1:pos:R:3:forces:R:3 energy=-7010.162798183224 stress="0.0 0.0 0.0 0.0 0.0 0.0 0.0 0.0 0.0" pbc="F F F"
C          0.03500       -0.03990        0.00410
H          0.07640       -0.65830        0.91120
H          0.02660       -0.72550       -0.85270
C         -1.23310        0.81230        0.01180
H         -1.22180        1.46680        0.89460
H         -1.21230        1.47380       -0.86290
C         -2.50870       -0.02440        0.00990
H         -2.55380       -0.67740        0.88970
H         -3.40320        0.60680        0.01620
H         -2.55650       -0.66380       -0.87930
C          1.29810        0.79240       -0.06470
H          1.28750        1.59590        0.68340
H          2.19270        0.17790        0.09170
F          1.39770        1.37510       -1.32290
