19
Properties=species:S:1:pos:R:3:forces:R:3 energy=-21331.963882257696 stress="0.0 0.0 0.0 0.0 0.0 0.0 0.0 0.0 0.0" pbc="F F F"
C         21.77020      -10.94050       -0.02360
H         22.29330      -11.89330       -0.03360
C         20.38040      -10.92410       -0.01830
H         19.83530      -11.86410       -0.03490
C         19.68850       -9.71620        0.00840
H         18.60170       -9.70860        0.01150
C         20.39720       -8.51900        0.03040
H         19.86820       -7.56970        0.05030
C         21.78730       -8.53260        0.02870
H         22.32800       -7.58980        0.02850
C         22.49360       -9.74000       -0.00000
C         24.81210       -8.73030        0.40720
H         24.45790       -7.79890        0.83470
C         26.19200       -9.05440        0.25040
H         27.00640       -8.38780        0.51260
C         26.37740      -10.29970       -0.26740
H         27.31200      -10.79620       -0.49140
S         24.88200      -11.09320       -0.56160
C         23.97090       -9.73260        0.00830
