13
Properties=species:S:1:pos:R:3:forces:R:3 energy=-18603.273670516057 stress="0.0 0.0 0.0 0.0 0.0 0.0 0.0 0.0 0.0" pbc="F F F"
C         -1.17310       -1.37500       -0.61940
H         -0.48620       -1.12500       -1.43150
H         -1.00790       -0.74130        0.25450
H         -2.20510       -1.26620       -0.96010
S         -0.98560       -3.08830       -0.17040
O         -1.15090       -3.88870       -1.37090
N          0.60050       -3.28440        0.27380
H          1.11950       -3.63010       -0.52430
O         -1.80960       -3.29440        1.00620
C          1.27450       -2.25690        1.05840
H          0.71250       -2.07820        1.97930
H          1.40860       -1.30730        0.52330
H          2.25950       -2.64040        1.33130
