20
Properties=species:S:1:pos:R:3:forces:R:3 energy=-13476.48516538334 stress="0.0 0.0 0.0 0.0 0.0 0.0 0.0 0.0 0.0" pbc="F F F"
C         15.86650      -26.29840        0.48800
H         15.32430      -27.16770        0.84470
C         17.25230      -26.25180        0.46980
H         17.83470      -27.10050        0.81880
C         17.88240      -25.10500       -0.00070
H         18.96470      -25.02610       -0.03230
C         17.08720      -24.05030       -0.43440
H         17.54070      -23.13430       -0.81030
N         15.75560      -24.07880       -0.42360
C         15.15850      -25.18510        0.03030
C         11.57230      -24.11370       -0.41220
H         10.98980      -23.26500       -0.76120
C         12.95810      -24.06710       -0.43040
H         13.50020      -23.19780       -0.78710
C         13.66610      -25.18040        0.02730
N         13.06900      -26.28670        0.48120
C         11.73730      -26.31520        0.49200
H         11.28380      -27.23120        0.86790
C         10.94220      -25.26050        0.05830
H          9.85990      -25.33950        0.09000
