11
Properties=species:S:1:pos:R:3:forces:R:3 energy=-7300.977200774674 stress="0.0 0.0 0.0 0.0 0.0 0.0 0.0 0.0 0.0" pbc="F F F"
C         -0.50290       -3.45520        2.43000
H         -0.57450       -2.47930        2.91190
H         -0.17320       -4.19520        3.16780
O          0.44330       -3.29300        1.38550
C          0.73280       -4.33230        0.56650
H         -1.49010       -3.73630        2.04430
C          0.20010       -5.69710        0.94650
H          0.57470       -6.00890        1.92780
H          0.53910       -6.41220        0.19680
O          1.41540       -4.13320       -0.40270
H         -0.89440       -5.71000        0.97860
