17
Properties=species:S:1:pos:R:3:forces:R:3 energy=-22204.79839142939 stress="0.0 0.0 0.0 0.0 0.0 0.0 0.0 0.0 0.0" pbc="F F F"
C         30.12970      -21.10660       -0.01310
H         30.70940      -20.18850       -0.02400
C         28.74080      -21.08950        0.02980
H         28.20090      -20.14710        0.06460
C         28.05610      -22.29880        0.02100
H         26.97090      -22.33350        0.05040
C         28.79530      -23.47670       -0.03180
H         28.29690      -24.44380       -0.04660
N         30.12660      -23.51290       -0.06640
C         30.77360      -22.34370       -0.04360
N         32.97470      -21.85730       -1.03180
C         34.30620      -22.13180       -0.83530
H         35.02880      -21.74250       -1.54090
C         34.59970      -22.88690        0.25780
H         35.56830      -23.21790        0.60530
S         33.15480      -23.29600        1.08960
C         32.25870      -22.40180       -0.09520
