19
Properties=species:S:1:pos:R:3:forces:R:3 energy=-12439.870412417067 stress="0.0 0.0 0.0 0.0 0.0 0.0 0.0 0.0 0.0" pbc="F F F"
C          5.59760      -15.07180        0.00760
H          6.12270      -14.11840        0.02870
C          4.20800      -15.08830        0.01870
H          3.65840      -14.15040        0.02970
C          3.52330      -16.30120        0.01320
H          2.43670      -16.31410        0.01840
C          4.23540      -17.49800        0.00940
H          3.70540      -18.44690        0.01510
C          5.62420      -17.48340        0.00480
H          6.19440      -18.40860        0.02350
C          6.31650      -16.27010       -0.01630
N          8.54940      -17.23720        0.47420
C          9.83980      -16.83040        0.25010
H         10.68190      -17.43330        0.56360
C          9.86280      -15.62740       -0.39670
H         10.67000      -15.00020       -0.74430
N          8.54130      -15.28390       -0.55850
H          8.19080      -14.49380       -1.07630
C          7.78750      -16.28160       -0.01110
