17
Properties=species:S:1:pos:R:3:forces:R:3 energy=-13416.291258041692 stress="0.0 0.0 0.0 0.0 0.0 0.0 0.0 0.0 0.0" pbc="F F F"
C         12.60210      -20.49750        0.00700
H         13.18580      -19.58190        0.03450
C         11.21420      -20.48730       -0.00660
H         10.66770      -19.54800       -0.00980
C         10.53680      -21.70120       -0.00710
H          9.45160      -21.74270       -0.01340
C         11.28460      -22.87650        0.01040
H         10.79230      -23.84750        0.02160
N         12.61560      -22.90490        0.01300
C         13.25220      -21.73120       -0.00840
N         15.51610      -20.97490        0.68810
C         16.78270      -21.47960        0.44560
H         17.66930      -21.02380        0.86360
C         16.68000      -22.56300       -0.35380
H         17.37380      -23.26260       -0.79270
O         15.36000      -22.76470       -0.61820
C         14.72760      -21.76590        0.03080
