17
Properties=species:S:1:pos:R:3:forces:R:3 energy=-12850.031952026711 stress="0.0 0.0 0.0 0.0 0.0 0.0 0.0 0.0 0.0" pbc="F F F"
C         15.44410      -17.03580        0.04210
H         14.49560      -16.51360        0.07970
C         16.65370      -16.36450       -0.03770
H         16.69240      -15.27790       -0.06630
N         17.83270      -16.98480       -0.09370
C         17.78790      -18.31740       -0.06390
N         16.68780      -19.07490        0.03990
C         15.53130      -18.42280        0.07680
H         14.63990      -19.04360        0.14590
N         18.98010      -19.03580       -0.01300
H         18.81740      -20.01130        0.21610
C         20.12450      -18.91740       -0.81340
C         20.44050      -17.56870       -1.40670
H         19.69840      -17.29050       -2.15960
H         20.42180      -16.78710       -0.64390
H         21.42600      -17.63650       -1.86820
O         20.83410      -19.89110       -0.95940
