18
Properties=species:S:1:pos:R:3:forces:R:3 energy=-8899.762241318042 stress="0.0 0.0 0.0 0.0 0.0 0.0 0.0 0.0 0.0" pbc="F F F"
C          2.71510       -1.20810       -0.30620
H          3.80860       -1.24970       -0.27920
H          2.39830       -1.27210       -1.35290
H          2.41420       -0.23160        0.08840
C          2.12350       -2.34870        0.50780
H          2.38660       -2.22710        1.57150
H          2.51530       -3.31600        0.19030
N          0.67440       -2.43200        0.36870
C         -0.07410       -1.21030        0.58700
H         -1.13230       -1.42090        0.73870
H          0.29480       -0.69040        1.48110
H          0.02140       -0.52310       -0.26250
C          0.11140       -3.67890        0.27210
C         -1.40180       -3.75060        0.18940
H         -1.86580       -3.44830        1.13420
H         -1.79580       -3.11340       -0.60760
H         -1.66760       -4.78820       -0.01300
O          0.79050       -4.69480        0.23790
