13
Properties=species:S:1:pos:R:3:forces:R:3 energy=-19635.270476485242 stress="0.0 0.0 0.0 0.0 0.0 0.0 0.0 0.0 0.0" pbc="F F F"
O         21.31930      -18.26410        0.75680
C         21.63800      -16.72730       -1.05510
H         22.03180      -15.73780       -0.79760
H         20.54700      -16.69280       -1.07530
H         22.03050      -16.98980       -2.04400
C         22.07630      -17.74070       -0.02510
N         23.94670      -19.34630       -0.00480
C         25.31740      -19.39280       -0.00730
H         25.80670      -20.35830       -0.01130
C         25.95280      -18.18930        0.00060
H         27.01530      -17.98970        0.00310
S         24.79440      -16.92170        0.00410
C         23.53560      -18.11670       -0.00470
