18
Properties=species:S:1:pos:R:3:forces:R:3 energy=-12876.118248260356 stress="0.0 0.0 0.0 0.0 0.0 0.0 0.0 0.0 0.0" pbc="F F F"
C         13.91650      -15.04490       -0.01470
H         14.47530      -14.11350       -0.03210
C         12.52830      -15.05950        0.01520
H         11.96720      -14.12910        0.03630
C         11.87170      -16.28420        0.00900
H         10.78760      -16.34640        0.02670
C         12.64160      -17.44290       -0.02570
H         12.16750      -18.42300       -0.03690
N         13.97400      -17.44690       -0.04200
C         14.59700      -16.26280       -0.02720
N         16.83630      -15.74610       -1.03110
C         18.11530      -16.14050       -0.72480
H         18.95740      -15.82550       -1.32620
C         18.12450      -16.94490        0.38240
H         18.91920      -17.44420        0.91760
N         16.80940      -17.04110        0.76340
H         16.41780      -17.63670        1.47790
C         16.07840      -16.28980       -0.10610
