11
Properties=species:S:1:pos:R:3:forces:R:3 energy=-5940.650524268506 stress="0.0 0.0 0.0 0.0 0.0 0.0 0.0 0.0 0.0" pbc="F F F"
F         13.27360      -26.49730        0.01380
C         14.39970      -25.68360        0.00050
H         14.35880      -25.03180        0.88140
H         14.35110      -25.05950       -0.90150
C         15.64770      -26.54250       -0.00310
H         15.66590      -27.13650        0.91860
H         16.52020      -25.87740        0.03110
C         15.71510      -27.45970       -1.22070
H         14.83660      -28.11040       -1.25510
H         15.73870      -26.88020       -2.15110
H         16.60960      -28.08960       -1.19440
