14
Properties=species:S:1:pos:R:3:forces:R:3 energy=-7010.108131445469 stress="0.0 0.0 0.0 0.0 0.0 0.0 0.0 0.0 0.0" pbc="F F F"
C          0.03050       -0.02240       -0.03700
H          0.07090       -0.62720        0.87760
H          0.02250       -0.72360       -0.88000
C         -1.24370        0.82070       -0.02410
H         -1.21690        1.50020        0.83880
H         -1.27280        1.45840       -0.91860
C         -2.50880       -0.03170        0.03740
H         -2.52370       -0.65100        0.94180
H         -3.41060        0.58900        0.04230
H         -2.57000       -0.70510       -0.82550
C          1.29750        0.81360       -0.07160
H          1.51750        1.18610       -1.07950
H          1.20610        1.67660        0.60170
F          2.37470        0.05660        0.36420
