21
Properties=species:S:1:pos:R:3:forces:R:3 energy=-15739.646729714234 stress="0.0 0.0 0.0 0.0 0.0 0.0 0.0 0.0 0.0" pbc="F F F"
C         21.86050      -32.79600        1.10120
H         22.43090      -32.45670        1.96230
C         20.47330      -32.74020        1.08980
H         19.92760      -32.35920        1.94840
C         19.80190      -33.17310       -0.04680
H         18.71810      -33.14620       -0.11120
C         20.55710      -33.64460       -1.11520
H         20.06900      -33.98830       -2.02470
N         21.88880      -33.71620       -1.11530
C         22.52750      -33.30720       -0.01540
C         26.15840      -32.19090        0.02600
H         26.72150      -31.26300        0.05380
C         24.76740      -32.16080        0.00960
H         24.24680      -31.20630        0.03110
C         24.02010      -33.33780       -0.04190
C         24.71490      -34.54480       -0.03800
C         26.10010      -34.60220       -0.01010
H         26.58390      -35.57330       -0.01430
C         26.82200      -33.41410        0.01760
H         27.90770      -33.44730        0.03520
F         24.02620      -35.69440       -0.06670
