18
Properties=species:S:1:pos:R:3:forces:R:3 energy=-6416.018377838859 stress="0.0 0.0 0.0 0.0 0.0 0.0 0.0 0.0 0.0" pbc="F F F"
C          3.61980       -0.28030        0.46140
H          3.26250       -1.06170        1.14150
H          2.88660        0.53330        0.46150
C          3.83000       -0.83980       -0.95080
H          2.85920       -1.20780       -1.31030
C          4.79900       -2.02320       -0.92230
H          4.39520       -2.82910       -0.29950
H          5.76720       -1.73520       -0.49590
H          4.97300       -2.42390       -1.92700
C          4.25160        0.26710       -1.88850
H          3.44440        0.94340       -2.18490
C          5.48990        0.53650       -2.29600
H          6.30640       -0.12560       -2.01320
C          5.87260        1.70790       -3.15000
H          6.34330        1.37550       -4.08290
H          6.60200        2.34390       -2.63470
H          4.56050        0.11370        0.86140
H          5.00340        2.32290       -3.40620
