13
Properties=species:S:1:pos:R:3:forces:R:3 energy=-18603.245363560993 stress="0.0 0.0 0.0 0.0 0.0 0.0 0.0 0.0 0.0" pbc="F F F"
C         -1.10290       -1.39430       -0.64970
H         -0.76460       -0.78230        0.18840
H         -0.48990       -1.22320       -1.53710
H         -2.15180       -1.18970       -0.87110
S         -0.98830       -3.10380       -0.17520
O         -1.81220       -3.30400        1.00430
N          0.62250       -3.22940        0.29960
H          1.20780       -3.10800       -0.52440
O         -1.19830       -3.91130       -1.36920
C          0.94850       -4.50090        0.96870
H          0.32420       -4.59580        1.85930
H          0.80480       -5.38380        0.33140
H          1.99400       -4.44430        1.27940
