14
Properties=species:S:1:pos:R:3:forces:R:3 energy=-10306.444295598132 stress="0.0 0.0 0.0 0.0 0.0 0.0 0.0 0.0 0.0" pbc="F F F"
O          5.05580      -11.21300       -1.00600
C          5.17140      -10.79040        1.35140
H          5.78540       -9.97890        1.76020
H          4.13920      -10.45480        1.23550
H          5.22090      -11.62010        2.06660
C          5.70960      -11.23240        0.01080
N          7.54010      -12.95560       -0.00570
C          8.91370      -12.88920       -0.00230
H          9.51730      -13.78770       -0.00090
C          9.33640      -11.58850       -0.00580
H         10.31760      -11.13630       -0.00840
N          8.18520      -10.83690       -0.00350
H          8.12760       -9.83080       -0.05000
C          7.13900      -11.70990       -0.00700
