21
Properties=species:S:1:pos:R:3:forces:R:3 energy=-13945.462190172511 stress="0.0 0.0 0.0 0.0 0.0 0.0 0.0 0.0 0.0" pbc="F F F"
C         29.18880      -17.01040       -1.47510
H         29.69980      -17.56920       -2.25460
C         27.80540      -17.01890       -1.35970
H         27.19660      -17.58920       -2.05650
C         27.21990      -16.28860       -0.33360
H         26.14260      -16.26420       -0.19720
C         28.05070      -15.58250        0.52860
H         27.63110      -15.00130        1.34690
N         29.38020      -15.55560        0.42900
C         29.93390      -16.25880       -0.56730
N         32.23240      -17.19180       -0.23770
C         33.49410      -16.71710       -0.49800
H         34.37490      -17.29550       -0.25370
C         33.43050      -15.47620       -1.06830
H         34.18640      -14.78310       -1.41010
N         32.09310      -15.17480       -1.16220
C         31.42010      -16.24970       -0.65790
C         31.50740      -13.95400       -1.68730
H         32.31220      -13.25770       -1.93380
H         30.85350      -13.50180       -0.93750
H         30.92760      -14.16560       -2.58910
