14
Properties=species:S:1:pos:R:3:forces:R:3 energy=-10306.673401886881 stress="0.0 0.0 0.0 0.0 0.0 0.0 0.0 0.0 0.0" pbc="F F F"
O          5.55810      -10.34720        1.19100
C          4.67440      -11.70540       -0.57570
H          4.85980      -11.33110       -1.58890
H          3.69790      -11.36700       -0.22380
H          4.70700      -12.80030       -0.62370
C          5.74910      -11.20610        0.35500
N          7.54740      -12.95170        0.10580
C          8.91240      -12.88290       -0.01740
H          9.51970      -13.77760       -0.05490
C          9.32770      -11.57790       -0.06470
H         10.30610      -11.12700       -0.15120
N          8.18210      -10.83240        0.02570
H          8.11240       -9.83120        0.12870
C          7.13840      -11.70420        0.09700
