18
Properties=species:S:1:pos:R:3:forces:R:3 energy=-8457.05310247972 stress="0.0 0.0 0.0 0.0 0.0 0.0 0.0 0.0 0.0" pbc="F F F"
C          5.49820      -23.16170       -0.03160
C          6.81020      -22.40440       -0.03180
H          7.63670      -23.12200       -0.09000
C          7.00650      -21.49560        1.18530
H          6.99010      -22.07530        2.11400
H          6.21900      -20.73750        1.25200
H          7.96770      -20.97430        1.12710
H          6.87180      -21.79520       -0.94420
C          4.27570      -22.48480       -0.04880
H          4.26410      -21.39550       -0.05630
C          3.07360      -23.18400       -0.06800
H          2.13290      -22.63840       -0.08110
C          3.07220      -24.57620       -0.06870
H          2.13220      -25.12240       -0.08130
C          4.28200      -25.26200       -0.05530
H          4.29390      -26.34980       -0.05770
C          5.48220      -24.55680       -0.04180
H          6.42820      -25.09630       -0.03020
