19
Properties=species:S:1:pos:R:3:forces:R:3 energy=-12439.520076352304 stress="0.0 0.0 0.0 0.0 0.0 0.0 0.0 0.0 0.0" pbc="F F F"
C         21.33730      -34.83070       -0.01770
H         21.90550      -33.90480       -0.03230
C         19.94960      -34.82490       -0.02510
H         19.40130      -33.88710       -0.04600
C         19.27640      -36.04030        0.00140
H         18.19170      -36.08920        0.00250
C         20.03320      -37.20800        0.02740
H         19.54520      -38.18140        0.04780
N         21.36500      -37.23140        0.01980
C         22.00930      -36.05570       -0.00200
C         24.37350      -35.41540        0.88200
H         24.12690      -34.60370        1.55410
C         25.65850      -35.97130        0.64600
H         26.59290      -35.66490        1.09630
C         25.49970      -36.99130       -0.26270
H         26.22160      -37.66770       -0.69940
N         24.17540      -37.06440       -0.58530
H         23.71700      -37.79920       -1.10340
C         23.47860      -36.08940        0.07950
