18
Properties=species:S:1:pos:R:3:forces:R:3 energy=-6415.980096621368 stress="0.0 0.0 0.0 0.0 0.0 0.0 0.0 0.0 0.0" pbc="F F F"
C          4.67350       -0.12270       -1.81570
H          5.72270       -0.09400       -1.50610
H          4.63630       -0.52180       -2.83450
C          3.85570       -0.97870       -0.85510
H          4.29170       -1.98990       -0.83890
H          3.96800       -0.59580        0.16950
C          2.37010       -1.11510       -1.16250
C          1.88080       -0.67550       -2.52150
H          2.33730       -1.27980       -3.31530
H          0.79760       -0.75720       -2.62660
H          2.15250        0.36690       -2.71750
C          1.59600       -1.68360       -0.23490
H          2.07380       -1.96240        0.70870
C          0.13210       -1.99400       -0.31100
H         -0.04090       -3.07180       -0.20160
H         -0.40850       -1.50580        0.50880
H          4.30560        0.90910       -1.84610
H         -0.32730       -1.67750       -1.24960
