19
Properties=species:S:1:pos:R:3:forces:R:3 energy=-12882.656771718312 stress="0.0 0.0 0.0 0.0 0.0 0.0 0.0 0.0 0.0" pbc="F F F"
C         26.82030      -10.06220       -1.24060
N         27.26690      -10.63630       -0.05800
H         26.55310      -11.02720        0.54110
N         28.66750      -12.61790       -0.05150
C         30.03060      -12.79430       -0.01570
H         30.47010      -13.78300       -0.03450
C         30.66910      -11.58990        0.04070
H         31.71500      -11.31420        0.07960
N         29.67340      -10.63900        0.04520
C         28.49890      -11.32090       -0.00860
O         27.57090       -9.82400       -2.16530
C         25.34320       -9.72640       -1.25930
H         25.03910       -9.21740       -0.33940
H         24.74200      -10.63690       -1.36020
H         25.14820       -9.08230       -2.11620
C         29.84540       -9.19960        0.01180
H         30.88930       -8.97510        0.24090
H         29.20770       -8.73120        0.76530
H         29.58920       -8.80180       -0.97340
