16
Properties=species:S:1:pos:R:3:forces:R:3 energy=-20705.159275714246 stress="0.0 0.0 0.0 0.0 0.0 0.0 0.0 0.0 0.0" pbc="F F F"
C         28.53880       -4.87010        1.07970
N         29.45170       -4.76020        0.04310
H         29.13020       -4.18070       -0.72290
C         31.11970       -6.60470        0.10130
H         30.40290       -7.41290        0.18600
C         32.53190       -6.77940        0.05450
H         33.02520       -7.74410        0.11740
C         33.19820       -5.60110       -0.08030
H         34.26640       -5.44000       -0.14250
S         32.12340       -4.25580       -0.16560
C         30.74140       -5.29810        0.00990
O         27.43180       -4.38680        0.96200
C         29.01340       -5.58010        2.32450
H         30.05600       -5.34160        2.55420
H         28.36430       -5.28900        3.15090
H         28.94080       -6.66620        2.19730
