19
Properties=species:S:1:pos:R:3:forces:R:3 energy=-12439.77199222824 stress="0.0 0.0 0.0 0.0 0.0 0.0 0.0 0.0 0.0" pbc="F F F"
C          5.61830      -15.09270       -0.01380
H          6.17110      -14.15600       -0.03870
C          4.22810      -15.08500       -0.01950
H          3.69240      -14.13940       -0.04040
C          3.52410      -16.28600        0.00400
H          2.43700      -16.28050        0.00350
C          4.21510      -17.49450        0.02120
H          3.66840      -18.43410        0.03170
C          5.60570      -17.50400        0.01820
H          6.15180      -18.44410        0.01420
C          6.31700      -16.30260        0.01990
N          8.56900      -16.90960       -0.87570
C          9.85380      -16.65140       -0.46560
H         10.70280      -17.02320       -1.02370
C          9.85900      -15.90840        0.68160
H         10.65380      -15.52160        1.30240
N          8.53220      -15.69810        0.97280
H          8.15910      -15.19990        1.76560
C          7.79510      -16.30960        0.00010
