10
Properties=species:S:1:pos:R:3:forces:R:3 energy=-6263.495285394452 stress="0.0 0.0 0.0 0.0 0.0 0.0 0.0 0.0 0.0" pbc="F F F"
O         -0.88130       -2.70020        1.10860
H         -0.65850       -2.39120        0.22110
C          0.22320       -3.42440        1.57560
H         -0.08610       -3.87510        2.52730
H          1.07590       -2.74780        1.74660
O          0.65180       -4.39120        0.65700
C          0.20580       -5.69920        0.95640
H          0.58400       -6.35120        0.16660
H         -0.89130       -5.75330        0.97520
H          0.58960       -6.04810        1.92650
