22
Properties=species:S:1:pos:R:3:forces:R:3 energy=-13046.113620222663 stress="0.0 0.0 0.0 0.0 0.0 0.0 0.0 0.0 0.0" pbc="F F F"
C          2.19790       -3.41250       -0.87890
H          1.80760       -4.37990       -0.57650
C          1.45610       -2.26170       -0.63300
H          0.49110       -2.32070       -0.13440
C          1.95500       -1.01780       -1.01920
C          1.17080        0.24100       -0.74740
C          3.19670       -0.92970       -1.64850
H          3.57090        0.04380       -1.95530
C          3.93710       -2.08270       -1.88800
H          4.90530       -2.01060       -2.37740
C          3.43910       -3.32490       -1.50390
H          4.01750       -4.22610       -1.69230
N          1.23600        0.73830        0.52790
C          0.44400        1.90920        0.84770
H         -0.03200        2.26010       -0.06740
H         -0.32750        1.67110        1.59140
H          1.08210        2.70270        1.25630
C          1.97010        0.13610        1.62270
H          2.68130       -0.60100        1.25220
H          2.53080        0.91390        2.15410
H          1.29550       -0.34900        2.34190
O          0.55090        0.80150       -1.63890
