18
Properties=species:S:1:pos:R:3:forces:R:3 energy=-6416.022265073417 stress="0.0 0.0 0.0 0.0 0.0 0.0 0.0 0.0 0.0" pbc="F F F"
C          4.83090       -1.99780       -0.88330
H          4.45550       -2.78630       -0.22200
H          5.79710       -1.66590       -0.48880
C          3.81960       -0.85300       -0.97080
H          3.68590       -0.43000        0.03790
C          2.45600       -1.38490       -1.42670
H          2.08650       -2.15590       -0.74210
H          2.53240       -1.82890       -2.42640
H          1.71030       -0.58360       -1.46670
C          4.25970        0.27370       -1.87770
H          3.44710        0.93090       -2.20180
C          5.49800        0.54980       -2.27920
H          6.32230       -0.09450       -1.97790
C          5.86860        1.70690       -3.15610
H          6.34810        1.36160       -4.08010
H          6.58840        2.36450       -2.65410
H          4.99780       -2.44130       -1.87230
H          4.99090        2.30280       -3.42770
