14
Properties=species:S:1:pos:R:3:forces:R:3 energy=-10306.459254371097 stress="0.0 0.0 0.0 0.0 0.0 0.0 0.0 0.0 0.0" pbc="F F F"
O          4.93450      -11.43700        0.79580
C          5.33360      -10.53930       -1.39030
H          5.93820       -9.63680       -1.54260
H          4.27630      -10.27080       -1.35360
H          5.52690      -11.19910       -2.24430
C          5.71800      -11.23060       -0.10160
N          7.53960      -12.95460       -0.01480
C          8.91170      -12.89410        0.00520
H          9.51130      -13.79520        0.01000
C          9.34080      -11.59510        0.01650
H         10.32460      -11.14920        0.03380
N          8.19370      -10.83900       -0.00400
H          8.13910       -9.83210        0.02980
C          7.14160      -11.70660       -0.00590
