16
Properties=species:S:1:pos:R:3:forces:R:3 energy=-9433.48669940183 stress="0.0 0.0 0.0 0.0 0.0 0.0 0.0 0.0 0.0" pbc="F F F"
C         -2.12080       -0.96700       -2.10810
H         -2.65640       -1.79430       -2.56910
C         -2.81870        0.01970       -1.42560
H         -3.90120       -0.02750       -1.34570
C         -2.11510        1.07290       -0.84190
H         -2.65040        1.85050       -0.30250
C         -0.73390        1.13720       -0.93840
H         -0.16550        1.94220       -0.48100
C         -0.03750        0.14520       -1.63520
C         -0.73150       -0.91430       -2.21820
H         -0.20440       -1.69110       -2.76310
O          1.31990        0.26100       -1.63730
C          2.03210       -0.48070       -2.60400
H          3.06270       -0.12480       -2.56130
H          2.01390       -1.55560       -2.37930
H          1.62940       -0.31940       -3.61220
