18
Properties=species:S:1:pos:R:3:forces:R:3 energy=-10939.24689667924 stress="0.0 0.0 0.0 0.0 0.0 0.0 0.0 0.0 0.0" pbc="F F F"
C         -3.07580        1.23530       -2.30770
H         -4.12480        1.44760       -2.49370
C         -2.07770        2.12100       -2.69650
H         -2.32590        3.05220       -3.20040
C         -0.75380        1.79300       -2.43520
H          0.06850        2.43750       -2.73330
C         -0.48160        0.59130       -1.78100
N         -1.43270       -0.26740       -1.40500
C         -2.69910        0.05900       -1.67010
H         -3.45190       -0.66120       -1.35190
C          0.94900        0.19870       -1.46740
H          0.96070       -0.87490       -1.23420
H          1.31230        0.74350       -0.58740
O          1.85030        0.51210       -2.50320
C          1.66730       -0.28700       -3.64990
H          2.49470       -0.06790       -4.32930
H          0.71990       -0.06290       -4.16030
H          1.68350       -1.35870       -3.39770
