18
Properties=species:S:1:pos:R:3:forces:R:3 energy=-12413.346139559168 stress="0.0 0.0 0.0 0.0 0.0 0.0 0.0 0.0 0.0" pbc="F F F"
C          7.44180      -26.90480       -0.03640
H          6.52340      -26.32590       -0.06870
C          7.41970      -28.29810       -0.03880
H          6.47570      -28.83640       -0.06960
C          8.61900      -28.99160        0.00910
H          8.66490      -30.07580        0.03680
C          9.80020      -28.25050        0.03340
N          9.84090      -26.92330        0.04950
C          8.67290      -26.27100        0.01170
H          8.73910      -25.18460        0.01900
N         11.05520      -28.92460        0.08500
H         11.76450      -28.43880       -0.45130
C         11.52920      -29.45740        1.28240
C         13.02560      -29.70820        1.29710
H         13.39120      -30.03550        0.31920
H         13.23940      -30.47120        2.04560
H         13.55830      -28.79290        1.57780
O         10.80580      -29.73360        2.21570
