13
Properties=species:S:1:pos:R:3:forces:R:3 energy=-18603.369389893767 stress="0.0 0.0 0.0 0.0 0.0 0.0 0.0 0.0 0.0" pbc="F F F"
C         -1.12070       -1.39700       -0.62080
H         -0.45420       -1.21080       -1.46520
H         -0.85130       -0.77680        0.23550
H         -2.15830       -1.22090       -0.90870
S         -0.99470       -3.11050       -0.15380
O         -1.18100       -3.90940       -1.35460
N          0.61310       -3.25970        0.26410
H          1.03500       -3.93340       -0.36680
O         -1.82430       -3.30810        1.02490
C          0.93870       -3.45570        1.67760
H          0.46350       -4.34320        2.11200
H          0.61860       -2.57600        2.24060
H          2.02440       -3.54420        1.75410
