23
Properties=species:S:1:pos:R:3:forces:R:3 energy=-24888.614406596735 stress="0.0 0.0 0.0 0.0 0.0 0.0 0.0 0.0 0.0" pbc="F F F"
C          3.06460       -3.68540       -0.89740
H          3.10790       -4.75750       -1.06170
C          1.82790       -3.04640       -0.88820
H          0.93070       -3.64190       -1.03440
C          1.77280       -1.66830       -0.68640
S          0.27940       -0.68760       -0.68370
N         -0.96630       -1.77020       -0.68690
C         -1.38260       -2.33600       -1.95860
H         -2.39060       -2.74210       -1.83910
H         -1.41030       -1.53810       -2.70240
H         -0.71820       -3.13400       -2.31750
C         -1.22750       -2.50770        0.53740
H         -1.15120       -1.81860        1.38070
H         -2.24830       -2.89720        0.49550
H         -0.53240       -3.34430        0.69260
C          2.94050       -0.94140       -0.46800
H          2.87190        0.12730       -0.28500
C          4.17120       -1.58770       -0.47750
H          5.08210       -1.01860       -0.31270
C          4.23630       -2.96110       -0.69460
H          5.19820       -3.46730       -0.70270
O          0.24080        0.02140        0.58700
O          0.20980        0.04330       -1.94070
