23
Properties=species:S:1:pos:R:3:forces:R:3 energy=-24888.712931940427 stress="0.0 0.0 0.0 0.0 0.0 0.0 0.0 0.0 0.0" pbc="F F F"
C          2.94940       -3.61800        0.08070
H          3.06410       -4.44450        0.77680
C          1.80960       -2.82210        0.13150
H          1.01990       -3.01380        0.85380
C          1.68500       -1.76980       -0.76970
S          0.25700       -0.72030       -0.69210
N         -0.98830       -1.85440       -0.66930
C         -2.23330       -1.32230       -0.11330
H         -2.01930       -0.85890        0.85070
H         -2.71510       -0.58500       -0.77200
H         -2.91280       -2.16440        0.04380
C         -1.16640       -2.54560       -1.94360
H         -0.26550       -3.11590       -2.18650
H         -1.98770       -3.25810       -1.82390
H         -1.39580       -1.85570       -2.76530
C          2.66750       -1.49920       -1.71600
H          2.52770       -0.66660       -2.39970
C          3.80120       -2.30350       -1.75940
H          4.57590       -2.10420       -2.49450
C          3.94210       -3.36080       -0.86270
H          4.83030       -3.98700       -0.89920
O          0.23600       -0.02790        0.58960
O          0.19790        0.04200       -1.93310
