14
Properties=species:S:1:pos:R:3:forces:R:3 energy=-9710.313201149336 stress="0.0 0.0 0.0 0.0 0.0 0.0 0.0 0.0 0.0" pbc="F F F"
C         -0.13130       -0.08820       -0.04710
H         -0.20430        0.42320       -1.01450
H         -0.24990        0.67300        0.73270
C          1.22060       -0.79090        0.06980
H          1.28360       -1.56760       -0.69990
H          1.28680       -1.30520        1.03800
C          2.38670        0.18320       -0.07500
H          2.36270        0.68150       -1.05070
H          3.34940       -0.32990        0.01450
H          2.34870        0.96040        0.69710
C         -1.30880       -1.02830        0.03430
H         -1.45080       -1.48060        1.02330
F         -1.15800       -2.04610       -0.86630
F         -2.45250       -0.36410       -0.29730
