17
Properties=species:S:1:pos:R:3:forces:R:3 energy=-8893.00067869539 stress="0.0 0.0 0.0 0.0 0.0 0.0 0.0 0.0 0.0" pbc="F F F"
C          2.18390       -1.09010       -0.11450
H          2.87890       -1.08780        0.72200
C          2.42860       -1.89490       -1.22270
H          3.31470       -2.52320       -1.26060
C          1.52610       -1.88880       -2.28220
H          1.70370       -2.51200       -3.15520
C          0.39510       -1.08140       -2.23610
H         -0.31800       -1.06670       -3.05720
C          0.14570       -0.27070       -1.12820
C          1.04870       -0.28780       -0.06010
H          0.86670        0.32880        0.81830
N         -1.05440        0.49670       -1.09240
H         -1.29440        0.70120       -0.12920
C         -1.02520        1.73530       -1.86560
H         -0.24670        2.44890       -1.54970
H         -0.86000        1.50140       -2.92380
H         -2.00280        2.22290       -1.78910
