21
Properties=species:S:1:pos:R:3:forces:R:3 energy=-13945.716161194252 stress="0.0 0.0 0.0 0.0 0.0 0.0 0.0 0.0 0.0" pbc="F F F"
C         29.16740      -17.07180       -1.50610
H         29.66040      -17.63500       -2.29370
C         27.78760      -17.06510       -1.36670
H         27.16460      -17.64960       -2.03870
C         27.21580      -16.29120       -0.36350
H         26.14030      -16.25050       -0.22140
C         28.06300      -15.55810        0.46000
H         27.65470      -14.93730        1.25410
N         29.39010      -15.56590        0.35170
C         29.93490      -16.31820       -0.61500
N         32.00050      -16.45650       -1.95550
C         33.32920      -16.25560       -1.71420
H         34.07010      -16.34080       -2.49900
C         33.53250      -15.95010       -0.39670
H         34.42190      -15.72960        0.17580
N         32.29450      -15.96180        0.19200
C         31.40120      -16.27230       -0.79530
C         32.03940      -15.70010        1.59990
H         32.99550      -15.72280        2.12770
H         31.38490      -16.47520        2.00180
H         31.55390      -14.73240        1.74090
