15
Properties=species:S:1:pos:R:3:forces:R:3 energy=-12353.351280677294 stress="0.0 0.0 0.0 0.0 0.0 0.0 0.0 0.0 0.0" pbc="F F F"
C         11.43000      -17.15270        0.83630
N         12.54800      -17.04010        0.00950
H         12.64620      -16.11560       -0.39220
N         13.81050      -19.09700        0.09470
C         15.18430      -19.30310        0.01520
H         15.61250      -20.29450        0.02500
C         15.81770      -18.12030       -0.06660
H         16.84500      -17.80370       -0.14360
O         14.85490      -17.13430       -0.04840
C         13.69540      -17.81010        0.06140
O         10.63170      -16.24160        0.87890
C         11.30040      -18.43380        1.61540
H         12.12510      -18.52230        2.32890
H         11.36590      -19.30540        0.95890
H         10.34900      -18.41520        2.14740
