10
Properties=species:S:1:pos:R:3:forces:R:3 energy=-6263.44487716199 stress="0.0 0.0 0.0 0.0 0.0 0.0 0.0 0.0 0.0" pbc="F F F"
O          0.09530       -2.06620        1.25110
H          0.84170       -1.85670        0.67310
C          0.34790       -3.35880        1.76080
H          1.20480       -3.34860        2.45050
H         -0.53260       -3.63510        2.34630
C          0.58250       -4.38810        0.62130
H          1.51480       -4.93330        0.78850
H         -0.22810       -5.13160        0.60360
O          0.71310       -3.75460       -0.63410
H         -0.08020       -3.21280       -0.74330
