10
Properties=species:S:1:pos:R:3:forces:R:3 energy=-6263.566104874763 stress="0.0 0.0 0.0 0.0 0.0 0.0 0.0 0.0 0.0" pbc="F F F"
O          0.11680       -2.10070        1.22150
H          0.20230       -1.43670        1.91520
C          0.35810       -3.38100        1.78730
H         -0.49680       -3.70940        2.39950
H          1.26430       -3.38450        2.41130
C          0.56610       -4.32500        0.62440
H         -0.28920       -4.24930       -0.06410
H          0.62430       -5.35720        0.98430
O          1.78980       -4.05380       -0.02320
H          1.74730       -3.12020       -0.27410
