19
Properties=species:S:1:pos:R:3:forces:R:3 energy=-12882.532695910888 stress="0.0 0.0 0.0 0.0 0.0 0.0 0.0 0.0 0.0" pbc="F F F"
C         26.69900       -9.45880        0.11570
N         27.18550      -10.74350        0.16130
H         26.51550      -11.49580        0.24660
N         28.63980      -12.56310        0.17880
C         29.99660      -12.76190        0.10720
H         30.42290      -13.75590        0.13940
C         30.64680      -11.57390       -0.00250
H         31.69290      -11.31700       -0.08180
N         29.66670      -10.59480        0.00020
C         28.48300      -11.26190        0.11210
O         27.39770       -8.47200        0.01490
C         25.18730       -9.39060        0.20450
H         24.83110       -9.83090        1.14160
H         24.72270       -9.93460       -0.62440
H         24.88610       -8.34500        0.16160
C         29.99830       -9.18070       -0.10320
H         31.08560       -9.10860       -0.17420
H         29.65180       -8.63430        0.77330
H         29.54360       -8.73770       -0.98850
