21
Properties=species:S:1:pos:R:3:forces:R:3 energy=-13945.505918389505 stress="0.0 0.0 0.0 0.0 0.0 0.0 0.0 0.0 0.0" pbc="F F F"
C         29.18360      -17.03460       -1.49040
H         29.68660      -17.61210       -2.26100
C         27.80030      -17.03500       -1.36910
H         27.18600      -17.61160       -2.05580
C         27.22150      -16.29120       -0.34860
H         26.14520      -16.26230       -0.20770
C         28.05840      -15.57900        0.50290
H         27.64310      -14.98950        1.31720
N         29.38680      -15.55540        0.39510
C         29.93440      -16.27030       -0.59800
N         32.20410      -17.30640       -0.42550
C         33.48000      -16.81860       -0.54930
H         34.34300      -17.45190       -0.39390
C         33.45540      -15.48950       -0.87020
H         34.23360      -14.76060       -1.04760
N         32.12750      -15.14700       -0.94780
C         31.42010      -16.28360       -0.68160
C         31.58300      -13.82700       -1.21570
H         32.38460      -13.18720       -1.59140
H         31.14770      -13.39090       -0.31230
H         30.80290      -13.90750       -1.97610
