16
Properties=species:S:1:pos:R:3:forces:R:3 energy=-10906.705879551613 stress="0.0 0.0 0.0 0.0 0.0 0.0 0.0 0.0 0.0" pbc="F F F"
C          7.55230      -21.31150        0.17220
H          6.65180      -20.71040        0.26140
C          7.51640      -22.69410        0.30560
H          6.58040      -23.20930        0.50450
C          8.70320      -23.40590        0.18300
H          8.72640      -24.48650        0.29200
C          9.87350      -22.69740       -0.07450
N          9.92670      -21.37090       -0.20460
C          8.77820      -20.70300       -0.07910
H          8.84800      -19.62250       -0.18810
C         11.20660      -23.40960       -0.21370
O         11.91200      -23.60800        0.74800
C         11.55970      -23.83250       -1.61800
H         11.55340      -22.95300       -2.27390
H         10.80440      -24.52520       -2.00830
H         12.54490      -24.30290       -1.63140
