14
Properties=species:S:1:pos:R:3:forces:R:3 energy=-4310.355465773086 stress="0.0 0.0 0.0 0.0 0.0 0.0 0.0 0.0 0.0" pbc="F F F"
C          2.07740       -1.52100        1.44690
H          2.03130       -0.62550        2.07530
H          2.74740       -2.23430        1.93860
C          0.69220       -2.13790        1.23770
H          0.30520       -2.45660        2.21300
C         -0.35750       -1.22640        0.54680
H         -0.72700       -1.72500       -0.35730
H         -1.23060       -1.12300        1.20210
C          0.12500        0.17440        0.16180
H          0.96350        0.13490       -0.54130
H         -0.68000        0.74180       -0.31730
H          0.45380        0.74430        1.03700
H          0.80880       -3.05860        0.65360
H          2.54100       -1.23490        0.49700
