11
Properties=species:S:1:pos:R:3:forces:R:3 energy=-7301.021534001941 stress="0.0 0.0 0.0 0.0 0.0 0.0 0.0 0.0 0.0" pbc="F F F"
C         -0.35890       -2.25690        0.56710
H         -0.65120       -1.50270        1.29870
H         -1.23060       -2.55980       -0.02650
O          0.15260       -3.35490        1.32080
C          0.73590       -4.34330        0.58560
H          0.41470       -1.86240       -0.09840
C          0.20670       -5.70490        0.95320
H          0.25000       -5.84890        2.03620
H          0.79020       -6.47010        0.44150
O          1.51710       -4.11980       -0.30300
H         -0.84110       -5.77550        0.64340
