12
Properties=species:S:1:pos:R:3:forces:R:3 energy=-6760.588009411229 stress="0.0 0.0 0.0 0.0 0.0 0.0 0.0 0.0 0.0" pbc="F F F"
C          0.25050       -3.17320        2.69820
H         -0.30830       -2.28870        3.01630
H         -0.25100       -4.05080        3.11670
H          1.26530       -3.11970        3.12070
N          0.21420       -3.25050        1.24220
H          0.60400       -2.41820        0.81110
C          0.79260       -4.34510        0.59650
C          0.21130       -5.69720        0.95640
H          0.59150       -6.04060        1.92590
H         -0.87950       -5.64630        1.02860
H          0.50450       -6.41670        0.19040
O          1.60000       -4.19170       -0.29780
