11
Properties=species:S:1:pos:R:3:forces:R:3 energy=-5940.637338010826 stress="0.0 0.0 0.0 0.0 0.0 0.0 0.0 0.0 0.0" pbc="F F F"
F         13.27060      -26.49390        0.01070
C         14.39990      -25.68500        0.00010
H         14.35910      -25.02620        0.87550
H         14.35120      -25.06820       -0.90660
C         15.65100      -26.54320       -0.00300
H         15.76580      -27.00990        0.98300
H         16.51650      -25.88290       -0.14140
C         15.60680      -27.62360       -1.07950
H         14.75520      -28.28870       -0.91420
H         15.49810      -27.18510       -2.07810
H         16.52090      -28.22530       -1.07340
