17
Properties=species:S:1:pos:R:3:forces:R:3 energy=-8893.088335490167 stress="0.0 0.0 0.0 0.0 0.0 0.0 0.0 0.0 0.0" pbc="F F F"
C          2.17080       -1.07950       -0.11530
H          2.85720       -1.07140        0.72810
C          2.42880       -1.88900       -1.21780
H          3.31610       -2.51530       -1.24660
C          1.53130       -1.88900       -2.28060
H          1.71380       -2.51900       -3.14820
C          0.39510       -1.08850       -2.25180
H         -0.30550       -1.10810       -3.08270
C          0.14200       -0.25970       -1.15330
C          1.03670       -0.27910       -0.07550
H          0.83670        0.33790        0.79950
N         -1.04430        0.48890       -1.07440
H         -1.06730        1.02740       -0.21810
C         -1.43680        1.29900       -2.21620
H         -1.69360        0.65830       -3.06590
H         -0.66680        2.01290       -2.54970
H         -2.34040        1.85520       -1.94930
