16
Properties=species:S:1:pos:R:3:forces:R:3 energy=-11813.468709434455 stress="0.0 0.0 0.0 0.0 0.0 0.0 0.0 0.0 0.0" pbc="F F F"
C         13.32370       -9.43320        0.36890
N         13.45720      -10.77510        0.10320
H         12.65120      -11.37980        0.17630
N         14.79420      -12.74900        0.18710
C         16.15340      -12.97070        0.09790
H         16.56460      -13.96870        0.16020
C         16.83330      -11.80050       -0.06860
H         17.88390      -11.57680       -0.17570
N         15.86350      -10.81910       -0.09500
H         15.94390       -9.81250       -0.05560
C         14.67850      -11.45310        0.06420
O         14.28600       -8.68240        0.40630
C         11.89600       -8.97510        0.57210
H         11.29670       -9.17860       -0.32120
H         11.43150       -9.50050        1.41320
H         11.89980       -7.90360        0.77050
