14
Properties=species:S:1:pos:R:3:forces:R:3 energy=-9710.323836024052 stress="0.0 0.0 0.0 0.0 0.0 0.0 0.0 0.0 0.0" pbc="F F F"
C         -0.13350       -0.08460       -0.05380
H         -0.21190        0.43720       -1.01480
H         -0.25130        0.66560        0.73680
C          1.21730       -0.78860        0.06530
H          1.28200       -1.56600       -0.70470
H          1.27710       -1.30330        1.03420
C          2.38790        0.18050       -0.07330
H          2.36860        0.68140       -1.04790
H          3.34860       -0.33630        0.01750
H          2.35140        0.95660        0.70010
C         -1.30480       -1.02920        0.03390
H         -1.34010       -1.59900        0.97120
F         -1.25870       -1.92740       -0.99530
F         -2.47200       -0.33400       -0.07980
