22
Properties=species:S:1:pos:R:3:forces:R:3 energy=-13509.229436845639 stress="0.0 0.0 0.0 0.0 0.0 0.0 0.0 0.0 0.0" pbc="F F F"
C         21.64710      -17.44050       -0.41050
H         22.25690      -18.22270       -0.85610
C         20.26560      -17.44910       -0.56740
H         19.79190      -18.24990       -1.12950
C         19.49070      -16.43260       -0.01510
H         18.41130      -16.43980       -0.14220
C         20.10370      -15.40270        0.69280
H         19.50680      -14.60210        1.12000
C         21.48320      -15.39900        0.85970
H         21.96680      -14.59580        1.41180
C         22.26500      -16.42850        0.32510
N         24.60210      -16.41160       -0.52360
C         25.83430      -16.31210        0.06930
H         26.74080      -16.27450       -0.52020
C         25.71050      -16.27190        1.42930
H         26.43250      -16.20320        2.23050
N         24.36110      -16.34610        1.68370
C         23.73750      -16.42370        0.46890
C         23.75140      -16.35600        2.99910
H         24.35380      -16.97360        3.66970
H         22.75270      -16.79110        2.92960
H         23.67470      -15.34610        3.41820
