22
Properties=species:S:1:pos:R:3:forces:R:3 energy=-13046.063990949748 stress="0.0 0.0 0.0 0.0 0.0 0.0 0.0 0.0 0.0" pbc="F F F"
C          2.19980       -3.45290       -0.97280
H          1.79960       -4.43650       -0.74250
C          1.43670       -2.32330       -0.69490
H          0.42990       -2.45600       -0.31010
C          1.94640       -1.04930       -0.95560
C          1.17470        0.23280       -0.77270
C          3.19030       -0.93380       -1.58150
H          3.55170        0.05960       -1.83050
C          3.95640       -2.06100       -1.84930
H          4.93570       -1.95220       -2.30880
C          3.46590       -3.32590       -1.53720
H          4.06140       -4.21030       -1.74660
N         -0.06170        0.19650       -0.16250
C         -0.88660        1.38070       -0.33610
H         -0.74220        1.78010       -1.33990
H         -0.62280        2.16890        0.38480
H         -1.93740        1.11250       -0.19510
C         -0.33130       -0.52050        1.07480
H          0.52530       -1.12330        1.38410
H         -1.21360       -1.16350        0.96490
H         -0.54690        0.18920        1.88530
O          1.60120        1.27390       -1.25330
