21
Properties=species:S:1:pos:R:3:forces:R:3 energy=-15739.81302245564 stress="0.0 0.0 0.0 0.0 0.0 0.0 0.0 0.0 0.0" pbc="F F F"
C         21.69470      -34.22220        0.57620
H         22.12650      -35.14160        0.95130
C         20.32140      -34.02780        0.58750
H         19.66500      -34.80810        0.96310
C         19.79850      -32.83410        0.10750
H         18.72980      -32.64490        0.09150
C         20.69420      -31.87430       -0.34850
H         20.33480      -30.91750       -0.72350
N         22.01490      -32.03570       -0.34700
C         22.51620      -33.20370        0.07870
C         26.16900      -32.19760       -0.03170
H         26.73930      -31.27310       -0.06070
C         24.78180      -32.15060       -0.01870
H         24.26760      -31.19630       -0.04360
C         24.00490      -33.31430        0.02710
C         24.70090      -34.52440        0.03160
C         26.08420      -34.60070        0.01740
H         26.55570      -35.57860        0.02990
C         26.82350      -33.42510       -0.01020
H         27.90830      -33.46940       -0.01980
F         24.02880      -35.69690        0.03030
