22
Properties=species:S:1:pos:R:3:forces:R:3 energy=-15303.291906025774 stress="0.0 0.0 0.0 0.0 0.0 0.0 0.0 0.0 0.0" pbc="F F F"
C         12.72270      -34.48310       -0.18540
H         13.19110      -35.39310       -0.53090
C         11.33680      -34.43860       -0.08900
H         10.75970      -35.31820       -0.36280
C         10.68710      -33.29180        0.34990
H          9.60370      -33.26470        0.42260
C         11.44780      -32.18100        0.69380
H         10.96420      -31.27080        1.04030
C         12.83230      -32.22290        0.59840
H         13.37580      -31.32750        0.87970
C         13.50790      -33.37110        0.15750
C         17.14510      -32.20900        0.35140
H         17.66690      -31.30020        0.63870
C         15.75950      -32.24890        0.41840
H         15.25850      -31.35170        0.76130
C         15.00940      -33.38330        0.06560
C         15.77770      -34.47600       -0.36130
C         17.16110      -34.46580       -0.43850
H         17.66660      -35.36370       -0.78190
C         17.85710      -33.32180       -0.07920
H         18.94090      -33.30070       -0.13510
F         15.19560      -35.64050       -0.73440
