17
Properties=species:S:1:pos:R:3:forces:R:3 energy=-13416.297964679145 stress="0.0 0.0 0.0 0.0 0.0 0.0 0.0 0.0 0.0" pbc="F F F"
C         12.60160      -20.49330        0.01320
H         13.17080      -19.56960        0.02850
C         11.21240      -20.48820        0.00470
H         10.66440      -19.54940        0.00960
C         10.53800      -21.70340       -0.00790
H          9.45290      -21.74760       -0.01350
C         11.28800      -22.87620       -0.01190
H         10.79840      -23.84890       -0.02040
N         12.61840      -22.90100       -0.00740
C         13.25540      -21.72740        0.00240
N         15.50630      -22.80620       -0.15660
C         16.78200      -22.28000       -0.06880
H         17.65900      -22.90310       -0.17100
C         16.70440      -20.94950        0.15130
H         17.41920      -20.15240        0.28380
O         15.38680      -20.61420        0.20350
C         14.72850      -21.78680        0.01470
