17
Properties=species:S:1:pos:R:3:forces:R:3 energy=-22205.013503480495 stress="0.0 0.0 0.0 0.0 0.0 0.0 0.0 0.0 0.0" pbc="F F F"
C         30.11930      -21.08060        0.00160
H         30.69480      -20.16020        0.01990
C         28.73130      -21.08970       -0.00130
H         28.17410      -20.15670        0.00200
C         28.06640      -22.31120       -0.00300
H         26.98160      -22.36200       -0.00270
C         28.82410      -23.47880       -0.00170
H         28.34110      -24.45420        0.00070
N         30.15450      -23.49030       -0.00550
C         30.78150      -22.30790       -0.01030
N         33.03040      -21.38690        0.37330
C         34.34460      -21.77460        0.31150
H         35.11690      -21.06280        0.57690
C         34.56150      -23.05880       -0.09060
H         35.50660      -23.56970       -0.21060
S         33.06400      -23.83640       -0.39520
C         32.25340      -22.36490        0.00870
