23
Properties=species:S:1:pos:R:3:forces:R:3 energy=-24888.71169098887 stress="0.0 0.0 0.0 0.0 0.0 0.0 0.0 0.0 0.0" pbc="F F F"
C          2.90320       -3.71260       -0.07870
H          2.96590       -4.63030        0.49940
C          1.74840       -2.93820       -0.02410
H          0.90020       -3.24140        0.58480
C          1.69090       -1.76530       -0.77200
S          0.25790       -0.71810       -0.70070
N         -0.98600       -1.85130       -0.67580
C         -2.21520       -1.34540       -0.06330
H         -1.97240       -0.90940        0.90650
H         -2.72220       -0.59190       -0.68350
H         -2.88380       -2.19700        0.08950
C         -1.20050       -2.50570       -1.96410
H         -0.30600       -3.06800       -2.24720
H         -2.01900       -3.22140       -1.84360
H         -1.44950       -1.79220       -2.75940
C          2.75390       -1.36070       -1.57230
H          2.66260       -0.44260       -2.14620
C          3.90150       -2.14430       -1.62100
H          4.73780       -1.83820       -2.24310
C          3.97630       -3.31850       -0.87490
H          4.87490       -3.92930       -0.91410
O          0.23400       -0.01650        0.57630
O          0.20550        0.03960       -1.94540
