17
Properties=species:S:1:pos:R:3:forces:R:3 energy=-11376.327323627374 stress="0.0 0.0 0.0 0.0 0.0 0.0 0.0 0.0 0.0" pbc="F F F"
C         18.74930      -30.76930        0.74060
N         19.90630      -30.44730        0.04930
H         19.70180      -29.85450       -0.74950
C         21.29600      -32.58740        0.05190
H         20.52870      -33.34880        0.09440
C         22.70470      -32.78660        0.02230
H         23.22420      -33.73610        0.04080
C         23.29320      -31.54880       -0.03540
H         24.33350      -31.25780       -0.06770
N         22.29410      -30.60920       -0.06060
H         22.42220      -29.61340        0.01500
C         21.07180      -31.23150       -0.00970
O         17.68860      -30.27300        0.41850
C         18.89430      -31.68430        1.93420
H         19.93930      -31.84190        2.21220
H         18.34450      -31.24530        2.77030
H         18.42440      -32.64960        1.71410
