15
Properties=species:S:1:pos:R:3:forces:R:3 energy=-5346.4674532591935 stress="0.0 0.0 0.0 0.0 0.0 0.0 0.0 0.0 0.0" pbc="F F F"
C          4.70230       -1.90020       -1.68410
H          5.77090       -1.69010       -1.56720
H          4.48260       -1.93290       -2.75740
C          3.85220       -0.83490       -0.98300
H          4.11340        0.15410       -1.38030
H          4.09530       -0.82280        0.08890
C          2.37620       -1.07450       -1.15150
H          1.95480       -0.84540       -2.13340
C          1.59990       -1.63660       -0.22770
H          2.03930       -1.86510        0.74590
C          0.14910       -1.97580       -0.40380
H         -0.46960       -1.44950        0.33260
H         -0.02450       -3.04870       -0.25910
H          4.50830       -2.89550       -1.27140
H         -0.20790       -1.70550       -1.40310
