18
Properties=species:S:1:pos:R:3:forces:R:3 energy=-6415.99132947498 stress="0.0 0.0 0.0 0.0 0.0 0.0 0.0 0.0 0.0" pbc="F F F"
C          3.97190       -2.20340       -1.72900
H          3.73330       -3.03610       -1.05800
H          4.99190       -2.34660       -2.10120
C          3.82870       -0.85750       -1.00300
H          4.53730       -0.87180       -0.15930
C          2.41540       -0.68420       -0.44780
H          2.15230       -1.50910        0.22320
H          1.68480       -0.67200       -1.26590
H          2.31970        0.25360        0.11010
C          4.21380        0.30240       -1.89780
H          3.41070        0.94510       -2.26850
C          5.46280        0.54940       -2.28350
H          6.25610       -0.11920       -1.93970
C          5.88970        1.68920       -3.15820
H          6.39580        1.32400       -4.05980
H          6.60070        2.33800       -2.63340
H          3.29210       -2.25040       -2.58810
H          5.03430        2.29870       -3.46870
