16
Properties=species:S:1:pos:R:3:forces:R:3 energy=-11916.651367670887 stress="0.0 0.0 0.0 0.0 0.0 0.0 0.0 0.0 0.0" pbc="F F F"
C         11.88480       -4.13520        0.32760
N         13.17860       -3.71080        0.10340
H         13.37180       -2.72010        0.11250
C         14.43030       -5.90340       -0.07960
H         13.62710       -6.61510       -0.17580
C         15.84940       -6.12530       -0.07280
H         16.35920       -7.07340       -0.17730
C         16.43180       -4.91580        0.09050
H         17.45530       -4.58090        0.15500
O         15.47510       -3.93770        0.18470
C         14.28030       -4.56520        0.08740
O         11.59770       -5.31060        0.42570
C         10.87040       -3.01230        0.42600
H         10.86190       -2.40780       -0.48750
H         11.09560       -2.34860        1.26820
H          9.88230       -3.44920        0.57370
