10
Properties=species:S:1:pos:R:3:forces:R:3 energy=-6263.400582688077 stress="0.0 0.0 0.0 0.0 0.0 0.0 0.0 0.0 0.0" pbc="F F F"
O         -0.90650       -3.73730        2.34230
H         -1.68900       -3.69730        1.77680
C          0.21360       -3.40650        1.57070
H          0.04680       -2.49630        0.97600
H          1.01570       -3.21860        2.29740
O          0.64220       -4.40500        0.67960
C          0.21740       -5.72700        0.94760
H          0.72460       -6.35900        0.21630
H          0.49680       -6.04140        1.96230
H         -0.86850       -5.84370        0.83870
