17
Properties=species:S:1:pos:R:3:forces:R:3 energy=-12850.12116133568 stress="0.0 0.0 0.0 0.0 0.0 0.0 0.0 0.0 0.0" pbc="F F F"
C         15.46090      -17.03350       -0.01040
H         14.51230      -16.51000       -0.02330
C         15.54640      -18.42100       -0.06120
H         14.65190      -19.03930       -0.11600
N         16.70040      -19.07460       -0.04980
C         17.80650      -18.31850        0.01880
N         17.85140      -16.98720        0.08040
C         16.67220      -16.36590        0.05800
H         16.71360      -15.28000        0.10300
N         18.97730      -19.05920        0.00390
H         18.81250      -20.05400       -0.09120
C         20.28600      -18.78210        0.39870
C         20.68460      -17.35480        0.66360
H         20.45480      -16.71360       -0.19010
H         20.13380      -16.94870        1.51560
H         21.75430      -17.35120        0.87270
O         21.06240      -19.71120        0.49570
