14
Properties=species:S:1:pos:R:3:forces:R:3 energy=-10410.23360014746 stress="0.0 0.0 0.0 0.0 0.0 0.0 0.0 0.0 0.0" pbc="F F F"
O          4.56470       -3.09690        0.35850
C          3.55520       -5.16410       -0.30080
H          3.53490       -6.05150        0.34230
H          2.62600       -4.60510       -0.17790
H          3.64270       -5.51050       -1.33640
C          4.71630       -4.26240        0.05920
C          6.52920       -6.14290       -0.00630
H          5.92750       -7.04370       -0.01480
C          7.95460       -6.05710       -0.00630
H          8.66620       -6.87060       -0.01020
C          8.24280       -4.72980        0.00190
H          9.17070       -4.17490        0.00770
O          7.11780       -3.99060        0.01050
C          6.07000       -4.85800       -0.01330
