17
Properties=species:S:1:pos:R:3:forces:R:3 energy=-11376.42005901443 stress="0.0 0.0 0.0 0.0 0.0 0.0 0.0 0.0 0.0" pbc="F F F"
C         19.40870      -29.68020       -1.05020
N         19.91330      -30.42240       -0.00000
H         19.36990      -30.35530        0.85170
C         21.24500      -32.56470        0.02830
H         20.44090      -33.28660        0.04580
C         22.64320      -32.82100        0.01230
H         23.12120      -33.79290        0.02180
C         23.28390      -31.60720       -0.00500
H         24.33660      -31.35990       -0.00930
N         22.32900      -30.62780       -0.01510
H         22.50020      -29.63840        0.06530
C         21.07690      -31.20270       -0.00900
O         18.42730      -28.98130       -0.88980
C         20.12740      -29.80750       -2.37430
H         20.59000      -30.79080       -2.49600
H         19.41090      -29.61500       -3.17430
H         20.91760      -29.05140       -2.44000
