18
Properties=species:S:1:pos:R:3:forces:R:3 energy=-10939.258922216792 stress="0.0 0.0 0.0 0.0 0.0 0.0 0.0 0.0 0.0" pbc="F F F"
C         -3.07860        1.23540       -2.33050
H         -4.12630        1.44700       -2.52450
C         -2.07970        2.13210       -2.69100
H         -2.32650        3.07290       -3.17710
C         -0.75770        1.80800       -2.41350
H          0.06430        2.47500       -2.65760
C         -0.48800        0.58910       -1.79200
N         -1.43920       -0.28040       -1.44240
C         -2.70440        0.04920       -1.70970
H         -3.45790       -0.67880       -1.41140
C          0.94140        0.18160       -1.48770
H          0.92310       -0.52120       -0.64320
H          1.37630       -0.33830       -2.35010
O          1.78630        1.27820       -1.23450
C          1.57820        1.85120        0.03590
H          2.29540        2.66910        0.13910
H          0.56050        2.25270        0.14310
H          1.75350        1.11960        0.84050
