15
Properties=species:S:1:pos:R:3:forces:R:3 energy=-21141.910834605787 stress="0.0 0.0 0.0 0.0 0.0 0.0 0.0 0.0 0.0" pbc="F F F"
C         28.91290      -15.90760       -0.92040
N         29.29300      -16.94460       -0.06810
H         28.57980      -17.62290        0.16780
N         30.76800      -18.77540       -0.10070
C         32.11570      -19.04930       -0.03420
H         32.44420      -20.08250       -0.06420
C         32.93650      -17.97660        0.07020
H         34.01620      -17.96300        0.13830
S         32.00610      -16.51930        0.06730
C         30.57830      -17.49420       -0.04000
O         29.72140      -15.22160       -1.50090
C         27.41300      -15.70640       -1.00590
H         26.96570      -15.65940       -0.00820
H         26.94140      -16.52940       -1.55390
H         27.22080      -14.77460       -1.53680
