14
Properties=species:S:1:pos:R:3:forces:R:3 energy=-4310.5483476132595 stress="0.0 0.0 0.0 0.0 0.0 0.0 0.0 0.0 0.0" pbc="F F F"
C          1.81360       -2.54400        0.27940
H          2.37470       -1.68900       -0.11400
H          2.52720       -3.19920        0.78990
C          0.69520       -2.10250        1.22250
H          1.12210       -1.55500        2.07410
C         -0.36870       -1.23210        0.54640
H         -0.74080       -1.74730       -0.34980
H         -1.22950       -1.13180        1.21990
C          0.13060        0.16240        0.17060
H          0.94690        0.11880       -0.55910
H         -0.67110        0.76570       -0.26810
H          0.50450        0.69360        1.05370
H          0.21310       -2.99390        1.64400
H          1.40670       -3.09470       -0.57690
