16
Properties=species:S:1:pos:R:3:forces:R:3 energy=-11916.413501386129 stress="0.0 0.0 0.0 0.0 0.0 0.0 0.0 0.0 0.0" pbc="F F F"
C         13.09330       -2.36750       -0.06270
N         13.19450       -3.71770        0.23930
H         12.36260       -4.17540        0.57680
C         14.44660       -5.88090        0.20030
H         13.66440       -6.60310        0.38540
C         15.84180       -6.13850       -0.00640
H         16.33860       -7.09950       -0.00350
C         16.42780       -4.93560       -0.20590
H         17.44200       -4.61900       -0.39550
O         15.49620       -3.93670       -0.14090
C         14.31670       -4.53080        0.09990
O         13.98820       -1.71680       -0.54850
C         11.72480       -1.79410        0.27070
H         10.94220       -2.26740       -0.33330
H         11.47470       -1.94390        1.32690
H         11.73680       -0.72550        0.05570
