11
Properties=species:S:1:pos:R:3:forces:R:3 energy=-7301.21074995121 stress="0.0 0.0 0.0 0.0 0.0 0.0 0.0 0.0 0.0" pbc="F F F"
C          0.05340       -2.10170        0.64390
H         -0.44190       -1.43580        1.35090
H         -0.53440       -2.18640       -0.27600
O          0.14590       -3.36480        1.30300
C          0.74690       -4.34470        0.58950
H          1.04980       -1.72540        0.39730
C          0.20010       -5.70080        0.95600
H          0.25870       -5.85340        2.03770
H          0.76660       -6.47220        0.43490
O          1.56210       -4.12440       -0.27160
H         -0.85350       -5.76020        0.66450
