11
Properties=species:S:1:pos:R:3:forces:R:3 energy=-7300.9797157736175 stress="0.0 0.0 0.0 0.0 0.0 0.0 0.0 0.0 0.0" pbc="F F F"
C         -0.42470       -3.47670        2.49090
H         -0.54660       -2.48770        2.93430
H         -1.41120       -3.87250        2.22380
O          0.39210       -3.28000        1.34770
C          0.73270       -4.33270        0.56690
H          0.05090       -4.14000        3.22240
C          0.21470       -5.69980        0.95900
H          0.58170       -6.42110        0.22860
H          0.56810       -5.99230        1.95350
O          1.42590       -4.13810       -0.39590
H         -0.88010       -5.72730        0.96420
