21
Properties=species:S:1:pos:R:3:forces:R:3 energy=-15739.81179813673 stress="0.0 0.0 0.0 0.0 0.0 0.0 0.0 0.0 0.0" pbc="F F F"
C         21.72210      -34.16620       -0.70550
H         22.17780      -35.01230       -1.20720
C         20.34470      -34.00060       -0.69430
H         19.70400      -34.72740       -1.18570
C         19.79950      -32.90490       -0.03730
H         18.72720      -32.74130        0.00550
C         20.67530      -32.00900        0.56520
H         20.29530      -31.12990        1.08290
N         22.00010      -32.13760        0.54070
C         22.52090      -33.21480       -0.06200
C         26.17020      -32.19610        0.02250
H         26.74130      -31.27210        0.04690
C         24.78250      -32.14870        0.01460
H         24.26650      -31.19490        0.04460
C         24.00940      -33.31330       -0.03020
C         24.70210      -34.52490       -0.02580
C         26.08570      -34.60150       -0.01280
H         26.55790      -35.57890       -0.02150
C         26.82380      -33.42460        0.00600
H         27.90870      -33.46880        0.01320
F         24.02190      -35.69160       -0.02560
