17
Properties=species:S:1:pos:R:3:forces:R:3 energy=-22204.76476402457 stress="0.0 0.0 0.0 0.0 0.0 0.0 0.0 0.0 0.0" pbc="F F F"
C         30.13170      -21.11010       -0.01340
H         30.71260      -20.19250       -0.01940
C         28.74280      -21.08930        0.02810
H         28.20500      -20.14560        0.06270
C         28.05580      -22.29690        0.02010
H         26.97050      -22.32990        0.04970
C         28.79260      -23.47630       -0.03140
H         28.29160      -24.44210       -0.04480
N         30.12430      -23.51690       -0.06820
C         30.77280      -22.34860       -0.04600
N         32.97240      -22.03690       -1.10820
C         34.30710      -22.25430       -0.86420
H         35.02580      -21.99330       -1.63030
C         34.60810      -22.79150        0.34870
H         35.58020      -23.04220        0.75020
S         33.16720      -23.05360        1.24450
C         32.26110      -22.40970       -0.08810
