22
Properties=species:S:1:pos:R:3:forces:R:3 energy=-13509.174503768483 stress="0.0 0.0 0.0 0.0 0.0 0.0 0.0 0.0 0.0" pbc="F F F"
C         21.46850      -15.40900        0.87480
H         21.94190      -14.61220        1.44360
C         20.08890      -15.43360        0.69980
H         19.47570      -14.64710        1.13290
C         19.49570      -16.46290       -0.02520
H         18.41690      -16.48170       -0.16080
C         20.28480      -17.47040       -0.57290
H         19.82560      -18.27870       -1.13630
C         21.66430      -17.44530       -0.40160
H         22.28940      -18.22950       -0.82240
C         22.26620      -16.40920        0.31740
N         24.38470      -16.75790        1.58080
C         25.71460      -16.58820        1.28340
H         26.48640      -16.83130        2.00190
C         25.86420      -16.09820        0.01730
H         26.73220      -15.83390       -0.57050
N         24.59000      -15.96070       -0.48280
C         23.73750      -16.37580        0.50300
C         24.23900      -15.46330       -1.80030
H         24.41790      -16.22040       -2.57160
H         24.83420      -14.57370       -2.02320
H         23.18400      -15.18570       -1.80840
