16
Properties=species:S:1:pos:R:3:forces:R:3 energy=-9433.42299359521 stress="0.0 0.0 0.0 0.0 0.0 0.0 0.0 0.0 0.0" pbc="F F F"
C         -2.12120        1.07340       -0.84070
H         -2.65510        1.85370       -0.30370
C         -2.82450        0.01800       -1.41830
H         -3.90680       -0.03080       -1.33460
C         -2.12780       -0.96920       -2.10490
H         -2.66480       -1.79480       -2.56640
C         -0.74080       -0.91160       -2.22060
H         -0.20540       -1.68300       -2.76720
C         -0.04450        0.13910       -1.62500
C         -0.73860        1.13880       -0.94200
H         -0.16960        1.94840       -0.49360
O          1.31860        0.24390       -1.65110
C          1.96590       -0.08430       -2.86470
H          2.98260        0.30500       -2.78160
H          1.46550        0.37720       -3.72530
H          2.01560       -1.17040       -3.02050
