19
Properties=species:S:1:pos:R:3:forces:R:3 energy=-12439.439633335585 stress="0.0 0.0 0.0 0.0 0.0 0.0 0.0 0.0 0.0" pbc="F F F"
C         21.34190      -34.83990        0.02490
H         21.91590      -33.91820        0.04300
C         19.95390      -34.82460        0.03680
H         19.41210      -33.88320        0.06470
C         19.27350      -36.03510        0.00610
H         18.18830      -36.07780        0.00860
C         20.02320      -37.20690       -0.02980
H         19.53030      -38.17730       -0.05550
N         21.35530      -37.23970       -0.02810
C         22.00600      -36.06850        0.00060
C         24.35720      -35.56420       -0.99860
H         24.09290      -34.88380       -1.79700
C         25.65360      -36.05130       -0.68280
H         26.57900      -35.81150       -1.18900
C         25.51860      -36.90200        0.38830
H         26.25380      -37.48250        0.92880
N         24.19590      -36.93920        0.73120
H         23.76120      -37.57870        1.37970
C         23.47870      -36.10450       -0.08650
