14
Properties=species:S:1:pos:R:3:forces:R:3 energy=-10410.02400203471 stress="0.0 0.0 0.0 0.0 0.0 0.0 0.0 0.0 0.0" pbc="F F F"
O          3.85930       -4.47800       -0.68940
C          4.50910       -3.41200        1.35340
H          4.78100       -3.99040        2.24350
H          3.46250       -3.10800        1.40010
H          5.15690       -2.52760        1.33940
C          4.73860       -4.23160        0.10700
C          6.51260       -6.12330        0.01310
H          5.86530       -6.98970        0.02460
C          7.94440       -6.08410        0.02270
H          8.62380       -6.92500        0.04870
C          8.27860       -4.77010       -0.00600
H          9.22040       -4.24030       -0.01100
O          7.16940       -3.99060       -0.02280
C          6.09720       -4.83350       -0.05220
