10
Properties=species:S:1:pos:R:3:forces:R:3 energy=-6263.322675098795 stress="0.0 0.0 0.0 0.0 0.0 0.0 0.0 0.0 0.0" pbc="F F F"
O          0.06710       -2.08900        1.24580
H          0.00540       -1.46240        1.97620
C          0.32890       -3.37140        1.78520
H         -0.52150       -3.71330        2.39560
H          1.22190       -3.37340        2.42900
C          0.57950       -4.34440        0.62500
H          0.40820       -3.80530       -0.31510
H         -0.12910       -5.17640        0.66890
O          1.86260       -4.94210        0.66490
H          2.50490       -4.27010        0.40460
