14
Properties=species:S:1:pos:R:3:forces:R:3 energy=-8266.513439118395 stress="0.0 0.0 0.0 0.0 0.0 0.0 0.0 0.0 0.0" pbc="F F F"
C          0.75650       -2.14090       -0.36220
H          1.48090       -1.48660       -0.85470
H          0.15430       -1.54570        0.34090
H          0.09380       -2.55700       -1.12580
N          1.46900       -3.24460        0.27350
H          2.12320       -2.90300        0.96590
C          0.65020       -4.26980        0.77310
N          0.59600       -4.34900        2.15160
H          1.33960       -3.91100        2.67560
C         -0.00020       -5.52850        2.75330
H         -0.89630       -5.78530        2.18780
H         -0.27810       -5.30530        3.78600
H          0.67300       -6.39550        2.73650
O         -0.04680       -4.96070        0.05360
