18
Properties=species:S:1:pos:R:3:forces:R:3 energy=-8899.78213546565 stress="0.0 0.0 0.0 0.0 0.0 0.0 0.0 0.0 0.0" pbc="F F F"
C          2.54170       -1.56790        1.69750
H          3.63350       -1.56910        1.78250
H          2.12930       -2.05820        2.58540
H          2.21270       -0.52260        1.69600
C          2.10790       -2.29230        0.42950
H          2.48580       -1.75420       -0.45380
H          2.50250       -3.30890        0.39460
N          0.66050       -2.41840        0.32460
C         -0.10440       -1.18820        0.31350
H         -1.08560       -1.34450       -0.13700
H          0.42190       -0.43970       -0.29030
H         -0.24470       -0.76780        1.31950
C          0.11070       -3.67260        0.25830
C         -1.40180       -3.75690        0.16920
H         -1.76480       -3.34360       -0.77800
H         -1.88880       -3.21790        0.98700
H         -1.67400       -4.81100        0.21780
O          0.79530       -4.68560        0.26610
