11
Properties=species:S:1:pos:R:3:forces:R:3 energy=-5940.640887026517 stress="0.0 0.0 0.0 0.0 0.0 0.0 0.0 0.0 0.0" pbc="F F F"
F         13.27380      -26.49230        0.00310
C         14.40160      -25.68060        0.00120
H         14.36480      -25.04270        0.89380
H         14.35240      -25.04110       -0.88850
C         15.64530      -26.54560       -0.00320
H         16.50830      -25.90220       -0.21860
H         15.56570      -27.25930       -0.83160
C         15.85040      -27.27540        1.32110
H         15.98070      -26.56350        2.14460
H         14.98190      -27.89970        1.55430
H         16.73530      -27.91870        1.28950
