17
Properties=species:S:1:pos:R:3:forces:R:3 energy=-12850.26779369555 stress="0.0 0.0 0.0 0.0 0.0 0.0 0.0 0.0 0.0" pbc="F F F"
C         15.74530      -21.96050        0.01020
H         14.79510      -21.43590        0.02410
C         15.80760      -23.35210        0.01790
H         14.89730      -23.94600        0.03500
C         17.04050      -23.98330       -0.00700
H         17.14420      -25.06120       -0.02320
C         18.17950      -23.17340       -0.02280
N         18.14410      -21.84160       -0.02940
C         16.94110      -21.25950       -0.01620
H         16.94490      -20.17080       -0.02370
N         19.47450      -23.71910       -0.00880
H         20.17160      -22.98980        0.08420
C         19.85150      -24.84230       -0.74530
N         21.22380      -25.00080       -0.80130
H         21.49600      -25.89560       -1.18150
H         21.77290      -24.69780       -0.00960
O         19.07600      -25.59620       -1.29940
