18
Properties=species:S:1:pos:R:3:forces:R:3 energy=-12979.463660304296 stress="0.0 0.0 0.0 0.0 0.0 0.0 0.0 0.0 0.0" pbc="F F F"
C         12.75660       -7.71500       -0.02880
H         13.34930       -6.80530       -0.06350
C         11.36890       -7.66960       -0.05780
H         10.84820       -6.71720       -0.11220
C         10.66200       -8.86360       -0.01520
H          9.57600       -8.88140       -0.03390
C         11.38340      -10.05210        0.05250
H         10.86870      -11.01050        0.08780
N         12.71350      -10.11400        0.07700
C         13.38730       -8.95880        0.03990
C         15.77920       -8.69040        1.03490
H         15.56640       -8.28310        2.01370
C         17.06490       -8.99750        0.48270
H         18.03060       -8.85750        0.94970
C         16.82530       -9.50580       -0.75060
H         17.45800       -9.87970       -1.54260
O         15.49370       -9.54300       -1.00470
C         14.86650       -9.03120        0.08730
