14
Properties=species:S:1:pos:R:3:forces:R:3 energy=-10306.770254609592 stress="0.0 0.0 0.0 0.0 0.0 0.0 0.0 0.0 0.0" pbc="F F F"
O          5.58610      -10.20930        1.01080
C          4.65280      -11.85380       -0.46400
H          4.74420      -12.94370       -0.39150
H          3.68460      -11.52170       -0.08450
H          4.74900      -11.58970       -1.52300
C          5.75700      -11.19400        0.31930
N          7.54890      -12.95220        0.09390
C          8.91390      -12.88520       -0.01280
H          9.52160      -13.78000       -0.04420
C          9.33200      -11.57990       -0.05490
H         10.31300      -11.13210       -0.12920
N          8.18830      -10.83300        0.02140
H          8.11030       -9.83240        0.12790
C          7.14160      -11.70160        0.08020
