21
Properties=species:S:1:pos:R:3:forces:R:3 energy=-15739.795060694985 stress="0.0 0.0 0.0 0.0 0.0 0.0 0.0 0.0 0.0" pbc="F F F"
C         21.74390      -34.09740        0.78620
H         22.22060      -34.85430        1.40060
C         20.36290      -33.96690        0.75350
H         19.73650      -34.62700        1.34680
C         19.79790      -32.99260       -0.05970
H         18.72250      -32.85990       -0.12700
C         20.65590      -32.17900       -0.79140
H         20.25800      -31.39800       -1.43660
N         21.98410      -32.27120       -0.74910
C         22.52300      -33.22920        0.01530
C         26.17360      -32.19610       -0.00720
H         26.74660      -31.27330       -0.01540
C         24.78530      -32.14640       -0.01640
H         24.27430      -31.18900       -0.04540
C         24.01290      -33.31110        0.01090
C         24.70250      -34.52410       -0.00010
C         26.08630      -34.60290       -0.00010
H         26.55740      -35.58050        0.00340
C         26.82510      -33.42620        0.00280
H         27.91010      -33.47150        0.00720
F         24.01490      -35.68460       -0.01240
