18
Properties=species:S:1:pos:R:3:forces:R:3 energy=-12413.521723562335 stress="0.0 0.0 0.0 0.0 0.0 0.0 0.0 0.0 0.0" pbc="F F F"
C          7.44360      -26.91530        0.03220
H          6.52170      -26.34380        0.03950
C          7.44600      -28.30450       -0.10300
H          6.51260      -28.85230       -0.20530
C          8.64880      -28.98220       -0.10590
H          8.68710      -30.06430       -0.20920
C          9.83950      -28.24500        0.02840
N          9.84820      -26.92260        0.15770
C          8.67020      -26.28680        0.15780
H          8.72600      -25.20600        0.26590
N         11.04060      -28.95500        0.02230
H         10.95750      -29.95830       -0.07970
C         12.37830      -28.57940        0.12910
C         12.72770      -27.12580        0.28900
H         12.26300      -26.70880        1.18530
H         13.81360      -27.05670        0.35270
H         12.35420      -26.53950       -0.55370
O         13.21820      -29.45830        0.08760
