20
Properties=species:S:1:pos:R:3:forces:R:3 energy=-12003.153176635766 stress="0.0 0.0 0.0 0.0 0.0 0.0 0.0 0.0 0.0" pbc="F F F"
C         13.26170      -34.79290        0.00010
H         13.79840      -33.84660        0.01180
C         11.87170      -34.79440        0.01310
H         11.33350      -33.84970        0.02090
C         11.17100      -35.99810        0.00980
H         10.08420      -35.99730        0.01570
C         11.87010      -37.20150       -0.00010
H         11.33100      -38.14500       -0.00280
C         13.25980      -37.19980       -0.00410
H         13.80600      -38.14020       -0.01490
C         13.97440      -35.99780       -0.00440
C         16.32850      -36.84950        0.64700
H         16.05020      -37.66270        1.30470
C         17.64390      -36.41880        0.32800
H         18.57130      -36.84820        0.68160
C         17.52540      -35.34580       -0.51900
H         18.27830      -34.73350       -0.99530
N         16.19140      -35.10460       -0.70900
H         15.80920      -34.43040       -1.35250
C         15.44380      -36.02700       -0.01580
