16
Properties=species:S:1:pos:R:3:forces:R:3 energy=-10906.776923537065 stress="0.0 0.0 0.0 0.0 0.0 0.0 0.0 0.0 0.0" pbc="F F F"
C          7.54280      -21.30680        0.17270
H          6.64030      -20.70960        0.26330
C          7.51430      -22.68920        0.30210
H          6.58150      -23.21110        0.49770
C          8.70310      -23.39460        0.16840
H          8.72410      -24.47700        0.25440
C          9.87790      -22.68460       -0.07390
N          9.91790      -21.35440       -0.19850
C          8.76870      -20.69440       -0.08120
H          8.83430      -19.61340       -0.19220
C         11.19740      -23.41090       -0.23530
O         12.22200      -22.94590        0.20690
C         11.17010      -24.72000       -1.00030
H         12.19590      -25.01740       -1.22700
H         10.69830      -25.50750       -0.40010
H         10.59170      -24.62250       -1.92490
