19
Properties=species:S:1:pos:R:3:forces:R:3 energy=-12543.182532399664 stress="0.0 0.0 0.0 0.0 0.0 0.0 0.0 0.0 0.0" pbc="F F F"
C          4.39290      -10.40940        0.00870
H          4.92800      -11.35530        0.00370
C          3.00270      -10.38980        0.01060
H          2.44850      -11.32550        0.01610
C          2.32240       -9.17540        0.00120
H          1.23510       -9.16050        0.00160
C          3.03610       -7.98120       -0.01330
H          2.50880       -7.03050       -0.02600
C          4.42710       -8.00080       -0.01190
H          4.98560       -7.06770       -0.02470
C          5.11660       -9.21450        0.01330
C          7.53910       -9.04860        0.95730
H          7.35230       -8.80220        1.99380
C          8.80950       -9.24360        0.32410
H          9.78710       -9.16890        0.78050
C          8.53540       -9.54380       -0.96840
H          9.14530       -9.76940       -1.83170
O          7.19620       -9.55430       -1.18480
C          6.59520       -9.23460       -0.00320
