15
Properties=species:S:1:pos:R:3:forces:R:3 energy=-7830.472307700325 stress="0.0 0.0 0.0 0.0 0.0 0.0 0.0 0.0 0.0" pbc="F F F"
C          2.44350       -0.78660        0.25310
H          3.52470       -0.63560        0.32570
H          1.97090       -0.21970        1.06270
H          2.11080       -0.37130       -0.70460
C          2.09570       -2.26310        0.35230
H          2.44540       -2.68890        1.29950
H          2.58330       -2.83840       -0.44280
N          0.65930       -2.44870        0.25450
H          0.07150       -1.63840        0.13830
C          0.11360       -3.69330        0.31810
C         -1.39840       -3.73530        0.20200
H         -1.73330       -3.31450       -0.75250
H         -1.87270       -3.16360        1.00730
H         -1.72230       -4.77400        0.26540
O          0.80840       -4.68730        0.45850
