10
Properties=species:S:1:pos:R:3:forces:R:3 energy=-6263.580046363814 stress="0.0 0.0 0.0 0.0 0.0 0.0 0.0 0.0 0.0" pbc="F F F"
O          0.95880       -3.40520        2.74900
H          1.88050       -3.24730        2.50700
C          0.20810       -3.43280        1.56540
H         -0.82830       -3.63370        1.86780
H          0.26360       -2.46440        1.04780
O          0.66460       -4.39150        0.65630
C          0.21440       -5.69600        0.97060
H          0.64590       -6.36960        0.22770
H          0.54120       -5.99890        1.97320
H         -0.88320       -5.76340        0.92380
