19
Properties=species:S:1:pos:R:3:forces:R:3 energy=-11976.907510757428 stress="0.0 0.0 0.0 0.0 0.0 0.0 0.0 0.0 0.0" pbc="F F F"
C         -0.13220        0.12160       -1.57210
N         -1.50200        0.16270       -1.17900
H         -2.04600       -0.66640       -1.36770
C          0.85540        0.55600       -0.69110
H          0.56240        0.94210        0.28110
C          2.19330        0.50310       -1.06980
H          2.96110        0.83300       -0.37410
C          2.55020        0.04270       -2.33370
H          3.59650        0.00780       -2.62670
C          1.56010       -0.36740       -3.22160
H          1.82720       -0.72430       -4.21320
C          0.22150       -0.32940       -2.84500
H         -0.54950       -0.64990       -3.54270
C         -2.18630        1.34670       -1.00240
C         -3.68790        1.18420       -0.85290
H         -3.94350        0.31390       -0.24000
H         -4.15480        1.05860       -1.83630
H         -4.09040        2.08730       -0.39380
O         -1.62620        2.42440       -0.95960
