18
Properties=species:S:1:pos:R:3:forces:R:3 energy=-10939.206022228884 stress="0.0 0.0 0.0 0.0 0.0 0.0 0.0 0.0 0.0" pbc="F F F"
C         -3.07780        1.24660       -2.31280
H         -4.12620        1.46160       -2.49920
C         -2.07610        2.12890       -2.69860
H         -2.31840        3.06250       -3.20210
C         -0.75510        1.79350       -2.42890
H          0.07260        2.43290       -2.72390
C         -0.48720        0.59490       -1.77050
N         -1.44290       -0.27160       -1.41790
C         -2.70700        0.06520       -1.68090
H         -3.46390       -0.65300       -1.36910
C          0.94610        0.18690       -1.49900
H          0.92860       -0.68550       -0.83200
H          1.49840        0.99920       -1.01130
O          1.66570       -0.09330       -2.68100
C          1.16130       -1.21000       -3.37690
H          1.84270       -1.40290       -4.20930
H          0.15270       -1.02310       -3.77190
H          1.12070       -2.10090       -2.73070
