18
Properties=species:S:1:pos:R:3:forces:R:3 energy=-10939.238209794983 stress="0.0 0.0 0.0 0.0 0.0 0.0 0.0 0.0 0.0" pbc="F F F"
C         -3.07770        1.24650       -2.31450
H         -4.12610        1.46070       -2.50250
C         -2.07750        2.13460       -2.69180
H         -2.32260        3.07120       -3.18780
C         -0.75510        1.80310       -2.42640
H          0.06620        2.45620       -2.70760
C         -0.48510        0.59520       -1.78340
N         -1.43940       -0.26530       -1.41890
C         -2.70460        0.06520       -1.68460
H         -3.45920       -0.65670       -1.37460
C          0.94700        0.19520       -1.48640
H          0.93820       -0.83390       -1.10350
H          1.37980        0.84990       -0.72010
O          1.79330        0.32210       -2.60710
C          1.49380       -0.61600       -3.61660
H          2.22290       -0.47030       -4.41750
H          0.48170       -0.46980       -4.02030
H          1.57290       -1.64810       -3.24110
