10
Properties=species:S:1:pos:R:3:forces:R:3 energy=-6263.4341869683885 stress="0.0 0.0 0.0 0.0 0.0 0.0 0.0 0.0 0.0" pbc="F F F"
O          1.21690       -2.50000        1.82770
H          1.53160       -2.20830        0.96320
C          0.20230       -3.41980        1.58610
H         -0.02960       -3.87700        2.55860
H         -0.70670       -2.92670        1.19270
O          0.63480       -4.38150        0.65690
C          0.21320       -5.69080        0.95600
H          0.66320       -6.35220        0.21240
H          0.54840       -6.00160        1.95680
H         -0.88140       -5.79500        0.90580
