20
Properties=species:S:1:pos:R:3:forces:R:3 energy=-13476.28623078103 stress="0.0 0.0 0.0 0.0 0.0 0.0 0.0 0.0 0.0" pbc="F F F"
C         21.68820      -24.20260        0.00530
H         22.24400      -23.26710       -0.00560
C         20.29620      -24.19450        0.01760
H         19.76010      -23.24900        0.03170
C         19.59290      -25.39580        0.00540
H         18.50590      -25.38950        0.00940
C         20.28190      -26.60570       -0.00590
H         19.73430      -27.54470       -0.00530
C         21.67370      -26.61520       -0.00270
H         22.21680      -27.55790        0.02130
C         22.38210      -25.41270       -0.02570
C         25.84350      -24.99540       -1.02790
H         26.35620      -24.62070       -1.91170
N         24.51280      -24.96030       -1.06610
C         23.87540      -25.41540        0.01910
N         24.45110      -25.92900        1.11230
C         25.78280      -25.93430        1.13170
H         26.24560      -26.33410        2.03190
C         26.54790      -25.47290        0.06910
H         27.63200      -25.48990        0.09230
