13
Properties=species:S:1:pos:R:3:forces:R:3 energy=-18603.32750423934 stress="0.0 0.0 0.0 0.0 0.0 0.0 0.0 0.0 0.0" pbc="F F F"
C         -1.10580       -1.39670       -0.63700
H         -0.49450       -1.22000       -1.52410
H         -2.15590       -1.19540       -0.85570
H         -0.76640       -0.78730        0.20250
S         -0.98970       -3.11020       -0.17150
O         -1.18240       -3.90750       -1.37390
N          0.61550       -3.24860        0.29160
H          1.14490       -3.55570       -0.51910
O         -1.82310       -3.30490        1.00350
C          0.88340       -4.07730        1.47530
H          0.28950       -3.69330        2.30580
H          0.65320       -5.14130        1.33160
H          1.94320       -3.96480        1.71400
