21
Properties=species:S:1:pos:R:3:forces:R:3 energy=-15739.595348006857 stress="0.0 0.0 0.0 0.0 0.0 0.0 0.0 0.0 0.0" pbc="F F F"
C         21.84500      -31.97570       -0.00270
H         22.39800      -31.04330       -0.00180
C         20.45950      -31.92540       -0.00350
H         19.95020      -30.96450       -0.00320
C         19.73730      -33.10990       -0.00470
H         18.65240      -33.12160       -0.00530
C         20.46140      -34.29650       -0.00500
H         19.94770      -35.25660       -0.00590
N         21.78810      -34.36050       -0.00430
C         22.49350      -33.22020       -0.00320
C         26.17170      -32.20270       -0.00040
H         26.73500      -31.27400        0.00050
C         24.78450      -32.16240       -0.00120
H         24.31880      -31.18310       -0.00080
C         23.99410      -33.31930       -0.00240
C         24.69720      -34.53450       -0.00270
C         26.08540      -34.59590       -0.00200
H         26.55630      -35.57380       -0.00230
C         26.82900      -33.42670       -0.00080
H         27.91370      -33.47280       -0.00020
F         24.06670      -35.71170       -0.00390
