14
Properties=species:S:1:pos:R:3:forces:R:3 energy=-31478.199178412713 stress="0.0 0.0 0.0 0.0 0.0 0.0 0.0 0.0 0.0" pbc="F F F"
C          2.01200      -24.64050       -0.90110
H          0.95940      -24.67760       -1.15280
C          2.80640      -25.66530       -0.49150
H          2.48050      -26.68920       -0.35990
N          4.11610      -25.34950       -0.23550
C          4.30570      -24.08790       -0.44470
S          2.93100      -23.19150       -0.98240
S          5.89120      -23.28800       -0.19380
C          5.95200      -23.03360        1.57390
H          5.10980      -22.40770        1.87270
H          6.89620      -22.52480        1.77940
H          5.92820      -24.00530        2.07170
O          5.79270      -21.97880       -0.82330
O          6.94230      -24.22980       -0.54600
