10
Properties=species:S:1:pos:R:3:forces:R:3 energy=-6263.4357662623615 stress="0.0 0.0 0.0 0.0 0.0 0.0 0.0 0.0 0.0" pbc="F F F"
O          0.10100       -2.06650        1.25070
H         -0.58230       -2.16940        0.57410
C          0.35140       -3.35960        1.76060
H         -0.46490       -3.69160        2.41940
H          1.24740       -3.27050        2.38060
C          0.57970       -4.39310        0.62350
H         -0.19030       -5.16850        0.65270
H          1.54930       -4.89640        0.75470
O          0.48330       -3.79700       -0.65330
H          1.04130       -3.00750       -0.62680
