10
Properties=species:S:1:pos:R:3:forces:R:3 energy=-6263.469565002209 stress="0.0 0.0 0.0 0.0 0.0 0.0 0.0 0.0 0.0" pbc="F F F"
O          0.84550       -2.23080        1.34910
H          0.72520       -2.03120        0.41250
C          0.20290       -3.43500        1.58430
H          0.46340       -3.73520        2.61120
H         -0.89960       -3.33380        1.50660
O          0.64510       -4.38770        0.65110
C          0.20780       -5.68600        0.96620
H          0.59260       -6.35650        0.19480
H          0.58990       -6.01540        1.94510
H         -0.89140       -5.75290        0.97880
