14
Properties=species:S:1:pos:R:3:forces:R:3 energy=-19198.730236669187 stress="0.0 0.0 0.0 0.0 0.0 0.0 0.0 0.0 0.0" pbc="F F F"
O         21.44910       -4.60350        1.10240
C         21.03390       -5.57920       -1.04690
H         21.43790       -5.08690       -1.93880
H         20.00040       -5.26900       -0.88030
H         21.07710       -6.65900       -1.23380
C         21.87610       -5.22280        0.15520
C         23.83380       -6.89130        0.08010
H         23.20620       -7.77440        0.14880
C         25.25830       -6.90970        0.00190
H         25.85810       -7.81310        0.00190
C         25.78450       -5.65480       -0.07020
H         26.82820       -5.37430       -0.13730
S         24.56840       -4.44030       -0.03620
C         23.32020       -5.62790        0.05160
