18
Properties=species:S:1:pos:R:3:forces:R:3 energy=-10939.136335031955 stress="0.0 0.0 0.0 0.0 0.0 0.0 0.0 0.0 0.0" pbc="F F F"
C         -3.11090        1.31270       -2.33380
H         -4.15460        1.55820       -2.50660
C         -2.09240        2.19470       -2.67150
H         -2.31840        3.15900       -3.12060
C         -0.77740        1.82340       -2.42180
H          0.04850        2.48640       -2.67060
C         -0.52510        0.57730       -1.84580
N         -1.50190       -0.27810       -1.52480
C         -2.76090        0.09430       -1.76300
H         -3.52920       -0.62440       -1.48360
C          0.89400        0.13480       -1.54030
H          0.95270       -0.15890       -0.48110
H          1.58220        0.97200       -1.70170
O          1.35140       -0.91620       -2.36420
C          1.09190       -2.20380       -1.85210
H          1.49720       -2.91320       -2.57850
H          0.01840       -2.38690       -1.71840
H          1.59960       -2.35790       -0.88730
