14
Properties=species:S:1:pos:R:3:forces:R:3 energy=-9710.309099386695 stress="0.0 0.0 0.0 0.0 0.0 0.0 0.0 0.0 0.0" pbc="F F F"
C         -0.13010       -0.09450       -0.09080
H         -0.21870        0.42590       -1.05150
H         -0.23130        0.66100        0.69790
C          1.22170       -0.79610        0.03430
H          1.31650       -1.55820       -0.75080
H          1.25690       -1.32890        0.99050
C          2.38640        0.18580       -0.05940
H          2.37590        0.71880       -1.01730
H          3.34940       -0.32720        0.02690
H          2.33350        0.93450        0.73900
C         -1.30920       -1.02710        0.04580
H         -1.43050       -1.70790       -0.80590
F         -2.45930       -0.30680        0.17220
F         -1.17480       -1.80050        1.16460
