19
Properties=species:S:1:pos:R:3:forces:R:3 energy=-12439.520143881165 stress="0.0 0.0 0.0 0.0 0.0 0.0 0.0 0.0 0.0" pbc="F F F"
C         21.31220      -34.79800        0.02790
H         21.82530      -33.83940        0.03580
C         19.92480      -34.83630        0.01130
H         19.35260      -33.91210        0.02120
C         19.28410      -36.06900       -0.01630
H         18.20120      -36.14770       -0.02810
C         20.07570      -37.21220       -0.03300
H         19.61810      -38.19960       -0.05900
N         21.40540      -37.19370       -0.02180
C         22.02190      -36.00430        0.01840
C         24.30480      -37.15150       -0.15910
H         23.94940      -38.15500       -0.35210
C         25.64450      -36.70210       -0.05700
H         26.54020      -37.29980       -0.16200
C         25.60480      -35.35430        0.20620
H         26.40360      -34.64200        0.35690
N         24.29280      -34.97160        0.25700
H         23.97350      -34.05060        0.50580
C         23.48550      -36.06430        0.04120
