12
Properties=species:S:1:pos:R:3:forces:R:3 energy=-6760.795509436365 stress="0.0 0.0 0.0 0.0 0.0 0.0 0.0 0.0 0.0" pbc="F F F"
C         -0.49640       -3.39620        2.56380
H         -0.74730       -2.38550        2.89010
H          0.00160       -3.90730        3.39820
H         -1.43370       -3.92010        2.34710
N          0.34060       -3.30170        1.38870
H          0.71370       -2.40510        1.11150
C          0.72940       -4.33160        0.58120
C          0.22820       -5.71060        0.96250
H          0.68310       -6.43360        0.28570
H         -0.86130       -5.77450        0.86570
H          0.48600       -5.96790        1.99490
O          1.44040       -4.13830       -0.39100
