15
Properties=species:S:1:pos:R:3:forces:R:3 energy=-12353.332489238677 stress="0.0 0.0 0.0 0.0 0.0 0.0 0.0 0.0 0.0" pbc="F F F"
C         12.12770      -16.13870       -0.97280
N         12.55040      -17.04360        0.00760
H         11.76670      -17.45040        0.50340
N         13.80180      -19.09160        0.03790
C         15.17330      -19.31910        0.03780
H         15.58170      -20.31990        0.06080
C         15.83010      -18.14450        0.01200
H         16.86580      -17.84220        0.01420
O         14.88660      -17.14550       -0.01200
C         13.70880      -17.80280        0.00580
O         10.97330      -15.76940       -0.96500
C         13.14670      -15.66120       -1.97610
H         13.57800      -16.50350       -2.52540
H         13.96920      -15.13910       -1.48040
H         12.63880      -14.98790       -2.66700
