20
Properties=species:S:1:pos:R:3:forces:R:3 energy=-13476.33712149023 stress="0.0 0.0 0.0 0.0 0.0 0.0 0.0 0.0 0.0" pbc="F F F"
C         12.95440      -24.07490       -0.42780
H         13.49760      -23.19680       -0.76540
C         11.56740      -24.11770       -0.42630
H         10.98970      -23.27010       -0.78540
C         10.93240      -25.25710        0.05600
H          9.84970      -25.33380        0.08500
C         11.72410      -26.30680        0.50850
H         11.26830      -27.21600        0.89630
N         13.05770      -26.28990        0.49350
C         13.65860      -25.19130        0.02710
C         17.26470      -26.23140       -0.33380
H         17.86000      -27.06330       -0.70080
C         15.87940      -26.27260       -0.40440
H         15.35410      -27.13480       -0.80560
C         15.15280      -25.17620        0.06370
N         15.72920      -24.09950        0.60580
C         17.06050      -24.08460        0.68610
H         17.49600      -23.19340        1.13450
C         17.87430      -25.11450        0.22760
H         18.95430      -25.04030        0.31230
