18
Properties=species:S:1:pos:R:3:forces:R:3 energy=-12979.908703007099 stress="0.0 0.0 0.0 0.0 0.0 0.0 0.0 0.0 0.0" pbc="F F F"
C          4.48160      -20.73740       -0.01080
H          5.03580      -19.80210       -0.01240
C          3.09120      -20.73470       -0.00890
H          2.55110      -19.79110       -0.01280
C          2.39270      -21.93920        0.00330
H          1.30530      -21.93630        0.00760
C          3.08470      -23.14650        0.01280
H          2.53910      -24.08660        0.02570
C          4.47600      -23.15180        0.00450
H          5.02470      -24.09050        0.00930
C          5.17940      -21.94740       -0.01840
N          7.48310      -22.33380       -0.91120
C          8.73660      -22.07250       -0.37840
H          9.64140      -22.29110       -0.92800
C          8.59460      -21.53660        0.85220
H          9.26480      -21.18840        1.62290
O          7.25960      -21.44420        1.11370
C          6.65700      -21.95530        0.01070
