21
Properties=species:S:1:pos:R:3:forces:R:3 energy=-13945.505923324972 stress="0.0 0.0 0.0 0.0 0.0 0.0 0.0 0.0 0.0" pbc="F F F"
C         29.18550      -17.05310       -1.47510
H         29.68960      -17.64100       -2.23710
C         27.80670      -17.09880       -1.31650
H         27.19860      -17.73740       -1.95190
C         27.22300      -16.30610       -0.33630
H         26.14910      -16.30150       -0.17530
C         28.05090      -15.50470        0.44150
H         27.63070      -14.86610        1.21520
N         29.37690      -15.45670        0.31350
C         29.93050      -16.23160       -0.63000
N         32.03340      -15.60590       -1.83070
C         33.36400      -15.66390       -1.50350
H         34.12640      -15.29490       -2.17630
C         33.52880      -16.22120       -0.26560
H         34.40170      -16.43430        0.33540
N         32.26500      -16.51660        0.18390
C         31.40510      -16.13450       -0.80490
C         31.90980      -17.08220        1.47410
H         32.81470      -17.46990        1.94750
H         31.44290      -16.33100        2.11720
H         31.20400      -17.90240        1.32500
