20
Properties=species:S:1:pos:R:3:forces:R:3 energy=-12003.103626006014 stress="0.0 0.0 0.0 0.0 0.0 0.0 0.0 0.0 0.0" pbc="F F F"
C         13.25530      -34.78750        0.01060
H         13.79340      -33.84230        0.02310
C         11.86520      -34.79460        0.02650
H         11.32150      -33.85330        0.04420
C         11.17100      -36.00160        0.01350
H         10.08380      -36.00580        0.02160
C         11.87450      -37.20190       -0.01060
H         11.33890      -38.14730       -0.02280
C         13.26540      -37.19470       -0.01690
H         13.81490      -38.13240       -0.03650
C         13.97170      -35.98910       -0.00130
C         16.34740      -36.55830        0.85470
H         16.08560      -37.15180        1.72030
C         17.65340      -36.20990        0.41540
H         18.58930      -36.48820        0.88090
C         17.51090      -35.44750       -0.71730
H         18.24740      -34.98690       -1.36130
N         16.17090      -35.31540       -0.96850
H         15.76850      -34.83790       -1.75960
C         15.44570      -36.00470       -0.02580
