15
Properties=species:S:1:pos:R:3:forces:R:3 energy=-21141.7899474628 stress="0.0 0.0 0.0 0.0 0.0 0.0 0.0 0.0 0.0" pbc="F F F"
C         28.77370      -16.39890       -1.21840
N         29.30490      -16.88670       -0.01960
H         28.63220      -17.31220        0.60640
N         30.76530      -18.77170        0.02990
C         32.11430      -19.04790        0.01750
H         32.44000      -20.08260        0.03080
C         32.93790      -17.97240       -0.01190
H         34.01960      -17.95590       -0.02600
S         32.00780      -16.51870       -0.02440
C         30.57540      -17.49010        0.01580
O         29.45060      -16.20670       -2.20000
C         27.28760      -16.10660       -1.15760
H         26.96110      -15.82220       -0.15290
H         26.72370      -16.99190       -1.47140
H         27.06780      -15.30010       -1.85770
