21
Properties=species:S:1:pos:R:3:forces:R:3 energy=-15739.802605725079 stress="0.0 0.0 0.0 0.0 0.0 0.0 0.0 0.0 0.0" pbc="F F F"
C         21.66040      -34.26730        0.39420
H         22.06570      -35.24560        0.61220
C         20.29100      -34.04820        0.42140
H         19.61550      -34.86740        0.65250
C         19.79570      -32.78040        0.14790
H         18.73100      -32.56950        0.15490
C         20.71520      -31.77710       -0.13130
H         20.37980      -30.76330       -0.34390
N         22.03130      -31.96690       -0.15010
C         22.50950      -33.19730        0.08460
C         26.16570      -32.19900       -0.03850
H         26.73390      -31.27330       -0.07300
C         24.77890      -32.15440       -0.01970
H         24.26490      -31.20050       -0.04130
C         23.99950      -33.31810        0.02910
C         24.70040      -34.52560        0.04280
C         26.08350      -34.59970        0.02530
H         26.55540      -35.57760        0.04190
C         26.82250      -33.42480       -0.01320
H         27.90730      -33.46800       -0.02670
F         24.03880      -35.70500        0.05430
