17
Properties=species:S:1:pos:R:3:forces:R:3 energy=-8892.997582823988 stress="0.0 0.0 0.0 0.0 0.0 0.0 0.0 0.0 0.0" pbc="F F F"
C          1.56020       -1.84740       -2.30830
H          1.75980       -2.43980       -3.19780
C          2.46150       -1.85150       -1.24780
H          3.37170       -2.44290       -1.30420
C          2.18420       -1.09380       -0.11430
H          2.87890       -1.09030        0.72250
C          1.02220       -0.33240       -0.03990
H          0.82220        0.25840        0.85210
C          0.11970       -0.31760       -1.10840
C          0.39310       -1.09520       -2.23420
H         -0.32360       -1.08810       -3.05220
N         -1.07780        0.45530       -1.08010
H         -0.96510        1.22760       -0.43360
C         -2.29100       -0.28910       -0.75360
H         -2.46210       -1.05980       -1.51410
H         -2.26910       -0.78310        0.23160
H         -3.14510        0.39550       -0.78600
