19
Properties=species:S:1:pos:R:3:forces:R:3 energy=-11977.032414462501 stress="0.0 0.0 0.0 0.0 0.0 0.0 0.0 0.0 0.0" pbc="F F F"
C         -0.14970        0.07010       -1.57510
N         -1.48890        0.07860       -1.13190
H         -1.60700        0.19890       -0.13730
C          0.21270       -0.33460       -2.86130
H         -0.55420       -0.63440       -3.56410
C          1.55650       -0.33480       -3.22030
H          1.83130       -0.65100       -4.22410
C          2.54300        0.06590       -2.32460
H          3.58780        0.06200       -2.62230
C          2.17490        0.47190       -1.04520
H          2.93190        0.78840       -0.33190
C          0.83790        0.47170       -0.66990
H          0.55650        0.78920        0.33230
C         -2.63220        0.10040       -1.89650
C         -3.90380        0.21000       -1.07400
H         -3.92560        1.14810       -0.50840
H         -3.98140       -0.61660       -0.35990
H         -4.75640        0.18200       -1.75170
O         -2.63300        0.03470       -3.11100
