18
Properties=species:S:1:pos:R:3:forces:R:3 energy=-10939.136781650925 stress="0.0 0.0 0.0 0.0 0.0 0.0 0.0 0.0 0.0" pbc="F F F"
C         -3.09700        1.27420       -2.29100
H         -4.14540        1.50010       -2.46120
C         -2.09190        2.14870       -2.68750
H         -2.33380        3.08680       -3.18170
C         -0.77130        1.80120       -2.43690
H          0.04830        2.45770       -2.71840
C         -0.50270        0.58590       -1.80460
N         -1.46100       -0.26030       -1.42220
C         -2.72660        0.09160       -1.66200
H         -3.48480       -0.61850       -1.33460
C          0.93100        0.20040       -1.47800
H          1.60530        0.69990       -2.19420
H          1.18180        0.57510       -0.47850
O          1.16980       -1.17690       -1.43420
C          1.15020       -1.79320       -2.70050
H          1.38930       -2.84770       -2.54170
H          0.16140       -1.71760       -3.17340
H          1.90150       -1.35540       -3.37700
