16
Properties=species:S:1:pos:R:3:forces:R:3 energy=-10907.077855138758 stress="0.0 0.0 0.0 0.0 0.0 0.0 0.0 0.0 0.0" pbc="F F F"
C          7.54240      -21.30800        0.17600
H          6.63690      -20.71630        0.27450
C          7.51950      -22.69230        0.31640
H          6.58950      -23.21320        0.52770
C          8.70570      -23.39900        0.17920
H          8.75350      -24.47980        0.26880
C          9.87220      -22.68240       -0.08750
N          9.90570      -21.35570       -0.22910
C          8.75770      -20.69120       -0.09690
H          8.81520      -19.61030       -0.21520
C         11.17480      -23.42960       -0.25060
O         11.17120      -24.64360       -0.28820
C         12.43920      -22.61250       -0.32910
H         13.28420      -23.27680       -0.51220
H         12.58460      -22.06700        0.60970
H         12.35860      -21.85790       -1.11720
