20
Properties=species:S:1:pos:R:3:forces:R:3 energy=-12003.13497869021 stress="0.0 0.0 0.0 0.0 0.0 0.0 0.0 0.0 0.0" pbc="F F F"
C         13.26590      -34.80210       -0.07540
H         13.78110      -33.84520       -0.13430
C         11.87680      -34.79550       -0.05280
H         11.34630      -33.84700       -0.09380
C         11.16750      -35.99140        0.02180
H         10.08120      -35.98500        0.03950
C         11.86400      -37.19470        0.07350
H         11.32450      -38.13620        0.13190
C         13.25250      -37.20090        0.05080
H         13.78130      -38.14970        0.09190
C         13.98100      -36.00700       -0.02400
C         16.32750      -37.11630       -0.00460
H         16.06350      -38.16480        0.05490
C         17.64510      -36.59640       -0.05370
H         18.56700      -37.16140       -0.03930
C         17.54190      -35.23040       -0.12380
H         18.30480      -34.46610       -0.17660
N         16.21440      -34.90910       -0.11870
H         15.85170      -33.97230       -0.16190
C         15.44870      -36.05020       -0.04600
