12
Properties=species:S:1:pos:R:3:forces:R:3 energy=-6760.865326274436 stress="0.0 0.0 0.0 0.0 0.0 0.0 0.0 0.0 0.0" pbc="F F F"
C          1.18600       -2.08820        1.44640
H          0.55390       -1.27860        1.82140
H          2.11250       -2.12440        2.03400
H          1.44410       -1.88980        0.40540
N          0.45860       -3.34000        1.48550
H          0.08440       -3.63510        2.37390
C          0.66430       -4.30650        0.53770
C          0.22270       -5.70040        0.94570
H         -0.62960       -5.69160        1.63320
H         -0.04190       -6.25710        0.04590
H          1.05370       -6.22120        1.43440
O          1.19190       -4.07180       -0.53620
