17
Properties=species:S:1:pos:R:3:forces:R:3 energy=-12850.222648192947 stress="0.0 0.0 0.0 0.0 0.0 0.0 0.0 0.0 0.0" pbc="F F F"
C         15.74350      -21.96350       -0.01450
H         14.79170      -21.44160       -0.02640
C         15.80850      -23.35540       -0.01440
H         14.89990      -23.95180       -0.02210
C         17.04450      -23.97990        0.00910
H         17.15390      -25.05750        0.03520
C         18.18000      -23.16660        0.00830
N         18.14220      -21.83710        0.01130
C         16.93650      -21.25820        0.00170
H         16.93680      -20.16960        0.00380
N         19.47270      -23.72480       -0.00640
H         20.16880      -23.00830       -0.18050
C         19.85450      -24.71990        0.89860
N         21.22480      -24.89230        0.95030
H         21.49460      -25.71830        1.46460
H         21.75740      -24.72930        0.10780
O         19.07770      -25.35690        1.58130
