22
Properties=species:S:1:pos:R:3:forces:R:3 energy=-13509.218390368664 stress="0.0 0.0 0.0 0.0 0.0 0.0 0.0 0.0 0.0" pbc="F F F"
C         21.65070      -17.43420       -0.37690
H         22.27590      -18.22880       -0.77480
C         20.27060      -17.48750       -0.51410
H         19.81350      -18.32930       -1.02790
C         19.47670      -16.46980        0.00460
H         18.39610      -16.50950       -0.10140
C         20.07930      -15.40450        0.66620
H         19.47250      -14.60620        1.08420
C         21.46130      -15.34800        0.80050
H         21.89010      -14.52200        1.35370
C         22.26930      -16.36070        0.27360
N         24.44680      -17.44320        0.00440
C         25.75600      -17.10890        0.19640
H         26.55930      -17.81020        0.00570
C         25.85480      -15.81940        0.63110
H         26.70020      -15.19600        0.88370
N         24.56780      -15.34370        0.71570
C         23.74440      -16.37780        0.34320
C         24.25550      -13.96200        1.03680
H         25.18240      -13.38660        0.99350
H         23.55680      -13.54430        0.30710
H         23.83940      -13.86360        2.04510
