17
Properties=species:S:1:pos:R:3:forces:R:3 energy=-8893.022537173876 stress="0.0 0.0 0.0 0.0 0.0 0.0 0.0 0.0 0.0" pbc="F F F"
C          1.56240       -1.84640       -2.30860
H          1.76540       -2.43740       -3.19840
C          2.46130       -1.84990       -1.24620
H          3.37250       -2.43980       -1.30020
C          2.17930       -1.09150       -0.11430
H          2.87140       -1.08530        0.72450
C          1.01640       -0.33240       -0.04340
H          0.81060        0.25980        0.84690
C          0.11300       -0.32220       -1.11210
C          0.39310       -1.09720       -2.23960
H         -0.31300       -1.08930       -3.06700
N         -1.07030        0.46210       -1.07900
H         -1.00010        1.15410       -0.34270
C         -2.32870       -0.26710       -0.96580
H         -2.45420       -0.92620       -1.83220
H         -2.41360       -0.88360       -0.05580
H         -3.15420        0.45210       -0.98310
