16
Properties=species:S:1:pos:R:3:forces:R:3 energy=-9433.453668835096 stress="0.0 0.0 0.0 0.0 0.0 0.0 0.0 0.0 0.0" pbc="F F F"
C         -2.11800        1.07460       -0.84410
H         -2.65260        1.85620       -0.30980
C         -2.82190        0.01920       -1.42220
H         -3.90440       -0.02760       -1.34150
C         -2.12490       -0.96880       -2.10550
H         -2.66160       -1.79410       -2.56860
C         -0.73660       -0.91490       -2.21750
H         -0.20540       -1.68600       -2.76760
C         -0.04010        0.13500       -1.62020
C         -0.73600        1.13800       -0.94170
H         -0.16730        1.94700       -0.49180
O          1.31950        0.25020       -1.64300
C          1.99640       -0.27840       -2.76460
H          3.01180        0.11980       -2.72260
H          2.04290       -1.37530       -2.72890
H          1.51960        0.02810       -3.70430
