22
Properties=species:S:1:pos:R:3:forces:R:3 energy=-12603.649155996805 stress="0.0 0.0 0.0 0.0 0.0 0.0 0.0 0.0 0.0" pbc="F F F"
C         13.18470      -22.00530       -0.00540
H         13.72310      -22.95050        0.00910
C         11.79440      -22.00480        0.00110
H         11.25650      -22.94930        0.00010
C         11.09510      -20.80120       -0.00140
H         10.00840      -20.79970       -0.00260
C         11.79790      -19.59950       -0.00340
H         11.26260      -18.65350       -0.00510
C         13.18800      -19.60320        0.00600
H         13.72960      -18.65970       -0.00950
C         13.90250      -20.80530        0.00510
C         17.49340      -21.71660       -0.79890
H         18.02720      -22.42780       -1.42400
C         16.10320      -21.71510       -0.79200
H         15.56060      -22.41180       -1.42750
C         15.39070      -20.80540       -0.00450
C         16.11050      -19.90680        0.78920
H         15.57310      -19.20730        1.42600
C         17.50060      -19.91630        0.79630
H         18.04010      -19.21070        1.42280
C         18.19810      -20.81910       -0.00160
H         19.28470      -20.82350       -0.00150
