14
Properties=species:S:1:pos:R:3:forces:R:3 energy=-9710.154468354307 stress="0.0 0.0 0.0 0.0 0.0 0.0 0.0 0.0 0.0" pbc="F F F"
C         -0.12230       -0.09690       -0.08200
H         -0.18970        0.44540       -1.03260
H         -0.21820        0.65300        0.71150
C          1.23310       -0.79380        0.04170
H          1.32460       -1.55760       -0.74050
H          1.27530       -1.32370        0.99960
C          2.39150        0.19320       -0.06190
H          2.37350        0.71900       -1.02370
H          3.35720       -0.31440        0.02420
H          2.33730        0.94750        0.73150
C         -1.33010       -1.02340        0.04810
H         -1.87850       -1.15780       -0.89010
F         -2.20950       -0.52530        0.96530
F         -0.96220       -2.26950        0.46910
