17
Properties=species:S:1:pos:R:3:forces:R:3 energy=-12850.134033527554 stress="0.0 0.0 0.0 0.0 0.0 0.0 0.0 0.0 0.0" pbc="F F F"
C         15.46790      -17.02990       -0.00640
H         14.52010      -16.50470       -0.00560
C         15.55110      -18.41660        0.07200
H         14.65530      -19.03200        0.13790
N         16.70340      -19.07230        0.07200
C         17.81180      -18.31970       -0.00900
N         17.85870      -16.98940       -0.08840
C         16.68050      -16.36620       -0.08570
H         16.72430      -15.28140       -0.15060
N         18.97560      -19.06820       -0.00400
H         18.81060      -20.06480        0.05990
C         20.33080      -18.75420       -0.06750
C         20.74840      -17.31150       -0.16590
H         20.32760      -16.84020       -1.05700
H         20.38580      -16.73790        0.69020
H         21.83750      -17.29260       -0.20330
O         21.12960      -19.66920       -0.04050
