20
Properties=species:S:1:pos:R:3:forces:R:3 energy=-13476.34502978122 stress="0.0 0.0 0.0 0.0 0.0 0.0 0.0 0.0 0.0" pbc="F F F"
C         21.68630      -24.20160        0.01070
H         22.24380      -23.26730        0.00470
C         20.29500      -24.19410        0.02330
H         19.75870      -23.24880        0.04130
C         19.59180      -25.39570        0.00540
H         18.50490      -25.38970        0.00880
C         20.28140      -26.60540       -0.01140
H         19.73450      -27.54470       -0.01590
C         21.67260      -26.61410       -0.00680
H         22.21860      -27.55470        0.01210
C         22.38190      -25.41160       -0.02300
C         25.83980      -24.81020       -0.93960
H         26.34960      -24.28620       -1.74560
N         24.50880      -24.77340       -0.96850
C         23.87410      -25.41470        0.02030
N         24.45500      -26.10710        1.00730
C         25.78680      -26.10540        1.02740
H         26.25330      -26.65110        1.84520
C         26.54860      -25.46490        0.05920
H         27.63270      -25.47960        0.07880
