20
Properties=species:S:1:pos:R:3:forces:R:3 energy=-13476.479827596684 stress="0.0 0.0 0.0 0.0 0.0 0.0 0.0 0.0 0.0" pbc="F F F"
C         12.95660      -24.06790       -0.43590
H         13.49890      -23.19520       -0.78410
C         11.57100      -24.10720       -0.39830
H         10.98830      -23.25120       -0.72850
C         10.94160      -25.25490        0.07120
H          9.85950      -25.32760        0.11990
C         11.73720      -26.31880        0.48100
H         11.28420      -27.23620        0.85400
N         13.06870      -26.30000        0.44500
C         13.66490      -25.19100       -0.00340
C         17.25000      -26.32610        0.23880
H         17.83180      -27.22350        0.43220
C         15.86410      -26.37490        0.24470
H         15.32090      -27.29250        0.44480
C         15.15700      -25.19810       -0.01030
N         15.75440      -24.02860       -0.25880
C         17.08610      -23.99750       -0.25400
H         17.54020      -23.02880       -0.45740
C         17.88070      -25.11280       -0.01400
H         18.96300      -25.02890       -0.02570
