16
Properties=species:S:1:pos:R:3:forces:R:3 energy=-10906.860123140346 stress="0.0 0.0 0.0 0.0 0.0 0.0 0.0 0.0 0.0" pbc="F F F"
C          7.54900      -21.31330        0.17610
H          6.64780      -20.71480        0.27350
C          7.51740      -22.69640        0.31700
H          6.58520      -23.21220        0.53220
C          8.70530      -23.40550        0.18970
H          8.75550      -24.48230        0.32370
C          9.86720      -22.69680       -0.10380
N          9.91650      -21.36920       -0.23180
C          8.76990      -20.70120       -0.08960
H          8.83410      -19.62060       -0.20100
C         11.19200      -23.42120       -0.20930
O         11.57470      -24.15290        0.67700
C         11.92020      -23.23900       -1.51690
H         12.85600      -23.79990       -1.50020
H         12.11700      -22.17290       -1.67790
H         11.29010      -23.57300       -2.34920
