16
Properties=species:S:1:pos:R:3:forces:R:3 energy=-11916.662270232908 stress="0.0 0.0 0.0 0.0 0.0 0.0 0.0 0.0 0.0" pbc="F F F"
C         11.86340       -4.15810        0.22710
N         13.14740       -3.74460       -0.06100
H         13.31670       -2.76530       -0.23730
C         14.43680       -5.91810        0.11890
H         13.64930       -6.64010        0.25720
C         15.85720       -6.12050        0.04540
H         16.38330       -7.06290        0.11370
C         16.41660       -4.90150       -0.12650
H         17.43160       -4.55230       -0.23420
O         15.44350       -3.93530       -0.16880
C         14.26350       -4.57860       -0.01400
O         11.59980       -5.31190        0.49740
C         10.82760       -3.05190        0.16920
H         11.04820       -2.26540        0.89940
H          9.84990       -3.47970        0.39320
H         10.79740       -2.59120       -0.82420
