14
Properties=species:S:1:pos:R:3:forces:R:3 energy=-4310.500858612457 stress="0.0 0.0 0.0 0.0 0.0 0.0 0.0 0.0 0.0" pbc="F F F"
C          0.50930       -3.59490        0.95340
H         -0.46000       -3.95080        1.32240
H          1.29010       -4.18980        1.43870
C          0.69340       -2.10280        1.22370
H          0.71090       -1.90640        2.30310
C         -0.37160       -1.22970        0.54580
H         -1.26100       -1.15590        1.18400
H         -0.70160       -1.73210       -0.37420
C          0.13830        0.16160        0.17430
H          0.47020        0.71490        1.06090
H         -0.63890        0.75530       -0.31820
H          0.99160        0.09170       -0.51030
H          1.68170       -1.80420        0.84700
H          0.54960       -3.80190       -0.12240
