20
Properties=species:S:1:pos:R:3:forces:R:3 energy=-13476.525516055686 stress="0.0 0.0 0.0 0.0 0.0 0.0 0.0 0.0 0.0" pbc="F F F"
C         21.68490      -24.19470        0.02490
H         22.24090      -23.26280        0.04560
C         20.29580      -24.19590        0.02100
H         19.75520      -23.25280        0.03430
C         19.59850      -25.40080        0.00200
H         18.51190      -25.40020       -0.00000
C         20.29450      -26.60650       -0.01560
H         19.75280      -27.54900       -0.03270
C         21.68360      -26.60930       -0.01450
H         22.23860      -27.54180       -0.03610
C         22.38660      -25.40250        0.01060
C         25.81620      -24.24800        0.21790
H         26.30690      -23.29240        0.39460
N         24.48720      -24.23270        0.21540
C         23.87260      -25.40280        0.00220
N         24.48490      -26.57510       -0.20500
C         25.81390      -26.56190       -0.21070
H         26.30280      -27.51860       -0.38690
C         26.55180      -25.40540        0.00220
H         27.63600      -25.40630        0.00090
