10
Properties=species:S:1:pos:R:3:forces:R:3 energy=-6263.295137485376 stress="0.0 0.0 0.0 0.0 0.0 0.0 0.0 0.0 0.0" pbc="F F F"
O          1.76340       -5.06980        0.89460
H          1.95780       -5.61440        0.12320
C          0.56870       -4.35360        0.63550
H         -0.28830       -5.03670        0.53030
H          0.64860       -3.76420       -0.28720
C          0.33340       -3.37500        1.78440
H          1.23910       -3.37250        2.40480
H         -0.50740       -3.71150        2.41050
O          0.08070       -2.09320        1.23640
H          0.02920       -1.46270        1.96400
