12
Properties=species:S:1:pos:R:3:forces:R:3 energy=-6760.7466652717385 stress="0.0 0.0 0.0 0.0 0.0 0.0 0.0 0.0 0.0" pbc="F F F"
C          1.50190       -2.33250        1.76060
H          1.04380       -1.45790        2.22940
H          1.91240       -2.04390        0.79130
H          2.32360       -2.69600        2.39340
N          0.48360       -3.34140        1.52110
H         -0.00290       -3.65900        2.34730
C          0.70460       -4.31420        0.56720
C          0.23410       -5.70680        0.94760
H         -0.70490       -5.69160        1.51190
H          0.99580       -6.19880        1.56340
H          0.10160       -6.28980        0.03550
O          1.30020       -4.08090       -0.46790
