18
Properties=species:S:1:pos:R:3:forces:R:3 energy=-21768.615200738313 stress="0.0 0.0 0.0 0.0 0.0 0.0 0.0 0.0 0.0" pbc="F F F"
C         21.79640      -23.57250       -0.02120
H         22.31430      -24.52780       -0.03890
C         20.40650      -23.54330       -0.01700
H         19.85150      -24.47730       -0.03400
C         19.72820      -22.32750        0.00830
H         18.64160      -22.30950        0.01100
C         20.44540      -21.13410        0.03100
H         19.92170      -20.18190        0.05220
C         21.83400      -21.15790        0.02780
H         22.41040      -20.23750        0.05140
C         22.51920      -22.37660        0.00140
N         24.69430      -21.27800        0.18260
C         26.03610      -21.54550        0.12120
H         26.74140      -20.73680        0.26970
C         26.37310      -22.83840       -0.12990
H         27.36010      -23.26730       -0.22160
S         24.95080      -23.78460       -0.29770
C         23.99340      -22.35720       -0.01510
