18
Properties=species:S:1:pos:R:3:forces:R:3 energy=-12876.017619897146 stress="0.0 0.0 0.0 0.0 0.0 0.0 0.0 0.0 0.0" pbc="F F F"
C         13.90550      -15.02820       -0.00970
H         14.44460      -14.08450       -0.00780
C         12.51760      -15.05580       -0.01180
H         11.94830      -14.13020       -0.02250
C         11.87420      -16.28720       -0.00690
H         10.79090      -16.36260       -0.01300
C         12.65970      -17.43610        0.00660
H         12.19790      -18.42200        0.01030
N         13.99050      -17.42680        0.01900
C         14.60260      -16.23970        0.01410
N         16.87820      -16.92480        0.80350
C         18.15020      -16.55350        0.44880
H         19.01330      -16.97050        0.95070
C         18.12610      -15.64190       -0.57090
H         18.90680      -15.12850       -1.11300
N         16.79390      -15.44250       -0.83600
H         16.40460      -14.87660       -1.57350
C         16.08440      -16.24950        0.00660
