20
Properties=species:S:1:pos:R:3:forces:R:3 energy=-12003.141844510725 stress="0.0 0.0 0.0 0.0 0.0 0.0 0.0 0.0 0.0" pbc="F F F"
C         13.26650      -34.80220       -0.04560
H         13.78790      -33.84690       -0.06020
C         11.87730      -34.79450       -0.02820
H         11.34740      -33.84510       -0.05030
C         11.16720      -35.99150        0.01650
H         10.08080      -35.98450        0.02870
C         11.86210      -37.19660        0.04840
H         11.32110      -38.13820        0.08590
C         13.25080      -37.20350        0.03350
H         13.78070      -38.15260        0.05020
C         13.97930      -36.00900       -0.02210
C         16.32840      -37.08860        0.20290
H         16.06580      -38.10410        0.47210
C         17.64490      -36.58280        0.05550
H         18.56860      -37.13310        0.17050
C         17.53690      -35.25380       -0.26570
H         18.29720      -34.51150       -0.46560
N         16.20810      -34.93750       -0.30560
H         15.84060      -34.04890       -0.60190
C         15.44710      -36.04900       -0.02320
