18
Properties=species:S:1:pos:R:3:forces:R:3 energy=-10939.13677904539 stress="0.0 0.0 0.0 0.0 0.0 0.0 0.0 0.0 0.0" pbc="F F F"
C         -3.09160        1.23850       -2.36170
H         -4.13690        1.44470       -2.57100
C         -2.09050        2.13930       -2.70620
H         -2.33260        3.07920       -3.19680
C         -0.77310        1.81310       -2.41340
H          0.04480        2.48030       -2.67360
C         -0.50470        0.59900       -1.77860
N         -1.45940       -0.27070       -1.44290
C         -2.72070        0.05290       -1.73870
H         -3.47550       -0.67930       -1.45510
C          0.93170        0.19620       -1.48620
H          1.54280        1.10890       -1.38350
H          1.32550       -0.36500       -2.34200
O          1.08850       -0.64510       -0.38020
C          0.87610       -0.00010        0.85370
H          1.06730       -0.74100        1.63400
H         -0.15650        0.36250        0.94960
H          1.56460        0.84880        0.99200
