18
Properties=species:S:1:pos:R:3:forces:R:3 energy=-12876.355829725431 stress="0.0 0.0 0.0 0.0 0.0 0.0 0.0 0.0 0.0" pbc="F F F"
C         13.90550      -15.01880       -0.01400
H         14.45860      -14.08350        0.00030
C         12.51850      -15.05990       -0.03090
H         11.93980      -14.14040       -0.05000
C         11.88280      -16.29730       -0.01450
H         10.80000      -16.37650       -0.02240
C         12.67030      -17.44440        0.01730
H         12.21000      -18.43140        0.03360
N         14.00230      -17.42350        0.02140
C         14.60260      -16.22670       -0.00090
N         16.86910      -15.33400        0.57920
C         18.12860      -15.86760        0.48250
H         18.99890      -15.32450        0.82690
C         18.08680      -17.11720       -0.07800
H         18.85700      -17.83850       -0.30850
N         16.76140      -17.34900       -0.33340
H         16.31470      -18.19730       -0.64980
C         16.07420      -16.24560        0.06050
