15
Properties=species:S:1:pos:R:3:forces:R:3 energy=-21141.75583210586 stress="0.0 0.0 0.0 0.0 0.0 0.0 0.0 0.0 0.0" pbc="F F F"
C         28.49060      -16.77740       -1.13900
N         29.32200      -16.97010       -0.03720
H         29.06890      -16.37630        0.74420
N         30.85520      -18.77960       -0.26280
C         32.19920      -19.02930       -0.10340
H         32.56500      -20.03860       -0.25460
C         32.97150      -17.97060        0.23420
H         34.03780      -17.94280        0.40590
S         31.99180      -16.56060        0.38090
C         30.60280      -17.52890       -0.03990
O         27.52530      -16.05220       -1.02790
C         28.84720      -17.51220       -2.40610
H         29.80830      -17.16590       -2.79830
H         28.06210      -17.31500       -3.13680
H         28.93780      -18.58750       -2.22630
