13
Properties=species:S:1:pos:R:3:forces:R:3 energy=-19635.287841056383 stress="0.0 0.0 0.0 0.0 0.0 0.0 0.0 0.0 0.0" pbc="F F F"
O         21.27390      -18.48980       -0.50210
C         21.68040      -16.44690        0.67770
H         22.05400      -16.42400        1.70730
H         20.59180      -16.36670        0.67230
H         22.11780      -15.59240        0.15060
C         22.07320      -17.74200        0.00880
N         23.94690      -19.33870        0.00410
C         25.31530      -19.38430        0.00920
H         25.80540      -20.34950        0.01360
C         25.95260      -18.18160        0.00280
H         27.01520      -17.98510        0.00270
S         24.79650      -16.91450        0.00020
C         23.53300      -18.10870        0.00400
