14
Properties=species:S:1:pos:R:3:forces:R:3 energy=-10306.494483510149 stress="0.0 0.0 0.0 0.0 0.0 0.0 0.0 0.0 0.0" pbc="F F F"
O          4.87740      -11.58090        0.65560
C          5.42490      -10.32260       -1.30940
H          5.92820       -9.35420       -1.19520
H          4.34720      -10.16220       -1.37590
H          5.80410      -10.77050       -2.23470
C          5.72460      -11.21940       -0.12770
N          7.53370      -12.95100       -0.01430
C          8.90440      -12.89940        0.00320
H          9.49800      -13.80450        0.01220
C          9.34250      -11.60300        0.00550
H         10.32990      -11.16490        0.01840
N          8.20160      -10.83990       -0.02010
H          8.15530       -9.83280        0.01950
C          7.14160      -11.69980       -0.00870
