14
Properties=species:S:1:pos:R:3:forces:R:3 energy=-4310.41552248895 stress="0.0 0.0 0.0 0.0 0.0 0.0 0.0 0.0 0.0" pbc="F F F"
C          0.13420        0.16340        0.16740
H          0.98450        0.09880       -0.52100
H         -0.64620        0.75830       -0.31850
C         -0.37340       -1.22860        0.54280
H         -0.74560       -1.73190       -0.35710
C          0.69660       -2.10220        1.23040
H          0.90780       -2.98650        0.61800
H          1.64150       -1.54580        1.28520
C          0.29880       -2.54770        2.63740
H         -0.62700       -3.13390        2.61660
H          1.07650       -3.16560        3.09830
H          0.12870       -1.68180        3.28750
H         -1.24180       -1.12560        1.20670
H          0.46820        0.71000        1.05680
