15
Properties=species:S:1:pos:R:3:forces:R:3 energy=-21141.854169144506 stress="0.0 0.0 0.0 0.0 0.0 0.0 0.0 0.0 0.0" pbc="F F F"
C         28.24200      -17.15720        0.85310
N         29.32890      -16.95450       -0.00370
H         29.21410      -16.10970       -0.55000
N         30.85320      -18.76000        0.32490
C         32.20050      -19.00990        0.16750
H         32.57370      -20.00620        0.37210
C         32.96730      -17.97070       -0.23470
H         34.03170      -17.94770       -0.41590
S         31.97360      -16.57020       -0.44650
C         30.59330      -17.52420        0.03880
O         27.30780      -16.38840        0.77890
C         28.29650      -18.32620        1.79630
H         28.47750      -19.25900        1.25700
H         27.34930      -18.36450        2.33410
H         29.12250      -18.20950        2.50300
