15
Properties=species:S:1:pos:R:3:forces:R:3 energy=-21141.822299364427 stress="0.0 0.0 0.0 0.0 0.0 0.0 0.0 0.0 0.0" pbc="F F F"
C         28.33120      -17.04360       -0.99320
N         29.33230      -16.97340       -0.02060
H         29.17440      -16.20240        0.61710
N         30.87490      -18.76460       -0.33560
C         32.21880      -19.01200       -0.15290
H         32.59810      -20.00670       -0.35380
C         32.97420      -17.97150        0.26780
H         34.03490      -17.94610        0.47000
S         31.97360      -16.57590        0.46570
C         30.60570      -17.53070       -0.04950
O         27.39010      -16.28470       -0.90500
C         28.48320      -18.07440       -2.07790
H         29.35270      -17.84520       -2.70040
H         27.57960      -18.05240       -2.68740
H         28.64730      -19.07030       -1.65890
