18
Properties=species:S:1:pos:R:3:forces:R:3 energy=-12876.044281871065 stress="0.0 0.0 0.0 0.0 0.0 0.0 0.0 0.0 0.0" pbc="F F F"
C         13.89810      -15.02160       -0.02780
H         14.41400      -14.06480       -0.02360
C         12.51060      -15.05990       -0.01780
H         11.93610      -14.13720       -0.03070
C         11.87340      -16.29450        0.00660
H         10.79080      -16.37630        0.01210
C         12.66760      -17.43760        0.02990
H         12.21450      -18.42740        0.05550
N         13.99730      -17.41770        0.02760
C         14.60520      -16.22870       -0.01400
N         16.84320      -17.25310        0.35280
C         18.12930      -16.81920        0.17910
H         18.97060      -17.45440        0.42280
C         18.15140      -15.54660       -0.32200
H         18.95910      -14.88100       -0.58870
N         16.83240      -15.18890       -0.44470
H         16.48840      -14.34810       -0.88030
C         16.08080      -16.25470       -0.03010
