10
Properties=species:S:1:pos:R:3:forces:R:3 energy=-6263.519413116198 stress="0.0 0.0 0.0 0.0 0.0 0.0 0.0 0.0 0.0" pbc="F F F"
O         -1.13820       -3.56430        1.94980
H         -1.68540       -3.39680        1.17080
C          0.20490       -3.41850        1.57910
H          0.76620       -3.47710        2.52280
H          0.39270       -2.45010        1.09680
O          0.67910       -4.40080        0.69930
C          0.22100       -5.71040        0.97450
H          0.64130       -6.35350        0.19860
H         -0.87260       -5.77170        0.95680
H          0.57240       -6.05680        1.95840
