15
Properties=species:S:1:pos:R:3:forces:R:3 energy=-5346.485160094113 stress="0.0 0.0 0.0 0.0 0.0 0.0 0.0 0.0 0.0" pbc="F F F"
C          4.47910       -1.18300        0.34570
H          5.54260       -0.92550        0.36040
H          4.39380       -2.25930        0.53170
C          3.85710       -0.80030       -0.99400
H          4.39560       -1.30400       -1.80820
H          4.00520        0.27260       -1.17660
C          2.38880       -1.10910       -1.13080
H          1.94200       -0.83510       -2.09100
C          1.60220       -1.67070       -0.21510
H          2.00890       -1.95800        0.75330
C          0.14260       -1.95170       -0.41570
H         -0.46670       -1.43000        0.33260
H         -0.07270       -3.02170       -0.30510
H          3.99630       -0.65410        1.17480
H         -0.18930       -1.63540       -1.41040
