18
Properties=species:S:1:pos:R:3:forces:R:3 energy=-10939.15536307917 stress="0.0 0.0 0.0 0.0 0.0 0.0 0.0 0.0 0.0" pbc="F F F"
C         -3.09950        1.28190       -2.29850
H         -4.14790        1.50800       -2.46860
C         -2.09550        2.16650       -2.67340
H         -2.33760        3.11360       -3.15010
C         -0.77430        1.81930       -2.42380
H          0.04280        2.48120       -2.70040
C         -0.50190        0.59910       -1.80700
N         -1.46330       -0.26500       -1.45810
C         -2.72840        0.08580       -1.69590
H         -3.48660       -0.63330       -1.39020
C          0.92870        0.16880       -1.54330
H          0.93130       -0.45250       -0.63620
H          1.56820        1.04240       -1.37330
O          1.52440       -0.52880       -2.61660
C          1.00840       -1.82500       -2.81290
H          1.67210       -2.32560       -3.52290
H         -0.01120       -1.80680       -3.21970
H          0.99450       -2.39530       -1.87100
