11
Properties=species:S:1:pos:R:3:forces:R:3 energy=-7300.748194139274 stress="0.0 0.0 0.0 0.0 0.0 0.0 0.0 0.0 0.0" pbc="F F F"
C          1.13630       -3.06390        2.48370
H          0.69330       -2.19870        2.98080
H          1.15490       -3.91220        3.18200
O          0.32130       -3.32980        1.34860
C          0.76440       -4.36110        0.55220
H          2.16180       -2.82340        2.17730
C          0.21070       -5.70460        0.95240
H          0.64220       -6.02080        1.90960
H         -0.87380       -5.64160        1.07850
O          1.52360       -4.17580       -0.35910
H          0.46440       -6.43930        0.18760
