14
Properties=species:S:1:pos:R:3:forces:R:3 energy=-7010.035529748021 stress="0.0 0.0 0.0 0.0 0.0 0.0 0.0 0.0 0.0" pbc="F F F"
C          0.03030       -0.02020        0.02270
H          0.04430       -0.63600       -0.88470
H          0.03380       -0.71340        0.87190
C         -1.24440        0.82280        0.02420
H         -1.23170        1.49190       -0.84680
H         -1.25810        1.47150        0.91100
C         -2.50800       -0.03210       -0.00460
H         -2.53650       -0.66230       -0.90120
H         -3.41160        0.58590       -0.00120
H         -2.55180       -0.69550        0.86720
C          1.31280        0.80660       -0.00180
H          1.76020        0.91210        0.99240
H          1.11780        1.81330       -0.39540
F          2.24640        0.21480       -0.84110
