13
Properties=species:S:1:pos:R:3:forces:R:3 energy=-19635.454969449274 stress="0.0 0.0 0.0 0.0 0.0 0.0 0.0 0.0 0.0" pbc="F F F"
O         21.73760      -16.73260       -0.64200
C         21.11360      -18.64400        0.67440
H         21.31420      -19.69370        0.43550
H         20.08780      -18.37490        0.41850
H         21.27510      -18.52190        1.75120
C         22.06770      -17.75040       -0.07570
N         23.95290      -19.36180       -0.04660
C         25.32420      -19.38070       -0.03160
H         25.83910      -20.33320       -0.05750
C         25.92820      -18.16030        0.01330
H         26.98710      -17.94130        0.03350
S         24.74540      -16.91910        0.02500
C         23.51870      -18.13710        0.00310
