10
Properties=species:S:1:pos:R:3:forces:R:3 energy=-6263.521148761597 stress="0.0 0.0 0.0 0.0 0.0 0.0 0.0 0.0 0.0" pbc="F F F"
O          0.12970       -2.08990        1.22910
H          0.15460       -1.44090        1.94160
C          0.36420       -3.37460        1.78370
H          1.26390       -3.39420        2.41740
H         -0.49840       -3.70060        2.38730
C          0.56950       -4.32630        0.62500
H          0.45230       -5.35870        0.96960
H         -0.19420       -4.13130       -0.14200
O          1.88070       -4.23770        0.10630
H          1.98010       -3.33360       -0.22150
