15
Properties=species:S:1:pos:R:3:forces:R:3 energy=-21141.86869988966 stress="0.0 0.0 0.0 0.0 0.0 0.0 0.0 0.0 0.0" pbc="F F F"
C         28.86590      -16.07340        1.06140
N         29.28690      -16.95190        0.05960
H         28.58120      -17.57770       -0.30760
N         30.77450      -18.78580        0.07060
C         32.12570      -19.04650        0.02250
H         32.46390      -20.07680        0.04630
C         32.93700      -17.96440       -0.05660
H         34.01730      -17.93830       -0.10750
S         31.99120      -16.51750       -0.06170
C         30.57240      -17.50640        0.02850
O         29.63830      -15.53800        1.82000
C         27.36790      -15.84000        1.07700
H         26.97810      -15.68410        0.06650
H         26.85120      -16.70070        1.51610
H         27.16320      -14.96220        1.68920
