18
Properties=species:S:1:pos:R:3:forces:R:3 energy=-8899.698480741756 stress="0.0 0.0 0.0 0.0 0.0 0.0 0.0 0.0 0.0" pbc="F F F"
C          2.76470       -1.06310        0.21320
H          3.85550       -1.14580        0.20400
H          2.46780       -0.49580       -0.67480
H          2.48520       -0.49340        1.10630
C          2.14870       -2.44900        0.22390
H          2.47740       -3.01190        1.10370
H          2.49540       -3.02290       -0.64510
N          0.68570       -2.44510        0.22470
C         -0.04650       -1.22940       -0.07220
H         -1.09930       -1.35060        0.17890
H          0.34000       -0.40660        0.53350
H          0.03010       -0.93770       -1.13060
C          0.10580       -3.68580        0.23430
C         -1.40670       -3.75760        0.14830
H         -1.88280       -3.23880        0.98720
H         -1.78060       -3.31780       -0.78150
H         -1.68420       -4.81090        0.18100
O          0.78620       -4.69800        0.32350
