21
Properties=species:S:1:pos:R:3:forces:R:3 energy=-13040.014333551779 stress="0.0 0.0 0.0 0.0 0.0 0.0 0.0 0.0 0.0" pbc="F F F"
C         21.83110      -19.59980       -0.00060
H         22.38740      -18.66780        0.01010
C         20.44210      -19.59670        0.01790
H         19.90660      -18.65070        0.03590
C         19.73880      -20.79790        0.01790
H         18.65240      -20.79440        0.03410
C         20.43510      -22.00280        0.00190
H         19.89590      -22.94670        0.00540
C         21.82500      -22.00620       -0.02360
H         22.34840      -22.95890       -0.01660
C         22.53930      -20.80500       -0.03070
C         26.16130      -21.80510       -0.51670
H         26.75690      -22.64700       -0.86080
C         24.77580      -21.87940       -0.52740
H         24.28280      -22.76970       -0.90600
C         24.03110      -20.78650       -0.07050
N         24.61810      -19.65340        0.33660
C         25.94820      -19.60200        0.35690
H         26.38000      -18.66840        0.71410
C         26.77050      -20.64460       -0.05550
H         27.85050      -20.54200       -0.02220
