22
Properties=species:S:1:pos:R:3:forces:R:3 energy=-15303.434990641437 stress="0.0 0.0 0.0 0.0 0.0 0.0 0.0 0.0 0.0" pbc="F F F"
C         12.84160      -32.83940        1.08480
H         13.39680      -32.47120        1.94480
C         11.45280      -32.79750        1.09540
H         10.93270      -32.38160        1.95450
C         10.73250      -33.27470        0.00400
H          9.64650      -33.23520        0.00580
C         11.41320      -33.80650       -1.08680
H         10.85970      -34.18730       -1.94080
C         12.80220      -33.86710       -1.08900
H         13.32400      -34.28820       -1.94340
C         13.53660      -33.37030       -0.00730
C         17.13390      -32.24070        0.46620
H         17.65390      -31.36730        0.84920
C         15.74510      -32.27710        0.47960
H         15.19600      -31.41610        0.85260
C         15.02720      -33.37690       -0.00520
C         15.78790      -34.43790       -0.50100
C         17.17350      -34.43460       -0.51770
H         17.69400      -35.29920       -0.91710
C         17.85140      -33.32410       -0.03090
H         18.93710      -33.30650       -0.04150
F         15.16770      -35.54110       -0.97080
