20
Properties=species:S:1:pos:R:3:forces:R:3 energy=-13476.200813153026 stress="0.0 0.0 0.0 0.0 0.0 0.0 0.0 0.0 0.0" pbc="F F F"
C         15.83610      -24.80430       -1.11240
H         15.27950      -24.52360       -2.00240
C         17.22410      -24.79140       -1.10560
H         17.77770      -24.49130       -1.99130
C         17.88710      -25.15780        0.05900
H         18.97110      -25.15780        0.12060
C         17.11980      -25.53090        1.15900
H         17.59790      -25.82660        2.09140
N         15.78800      -25.56590        1.16280
C         15.15750      -25.20360        0.04220
C         11.57880      -24.11020       -0.41890
H         11.01280      -23.25580       -0.78030
C         12.96670      -24.08860       -0.42140
H         13.51100      -23.21750       -0.77580
C         13.66160      -25.20220        0.05830
N         13.04680      -26.29780        0.51250
C         11.71470      -26.30990        0.49170
H         11.24950      -27.22130        0.86340
C         10.93190      -25.24950        0.04320
H          9.84880      -25.32170        0.05950
