22
Properties=species:S:1:pos:R:3:forces:R:3 energy=-13046.140467455178 stress="0.0 0.0 0.0 0.0 0.0 0.0 0.0 0.0 0.0" pbc="F F F"
C          2.11250       -3.43060       -1.13150
H          1.65120       -4.41060       -1.03270
C          1.36460       -2.28520       -0.88260
H          0.31590       -2.35190       -0.60380
C          1.95630       -1.02650       -0.98930
C          1.11170        0.19820       -0.74310
C          3.28710       -0.91810       -1.39370
H          3.73800        0.06710       -1.48960
C          4.03060       -2.06530       -1.65180
H          5.06990       -1.97770       -1.95390
C          3.44670       -3.32210       -1.51530
H          4.03180       -4.21690       -1.71340
N          1.42410        0.95270        0.35750
C          0.68640        2.18020        0.57900
H         -0.03490        2.29680       -0.22950
H          0.15370        2.14450        1.53850
H          1.36310        3.04350        0.59420
C          2.41840        0.61230        1.35480
H          2.78480       -0.40270        1.20630
H          3.26750        1.30840        1.32490
H          1.97080        0.66990        2.35460
O          0.16740        0.46540       -1.47230
