15
Properties=species:S:1:pos:R:3:forces:R:3 energy=-7830.5033055345875 stress="0.0 0.0 0.0 0.0 0.0 0.0 0.0 0.0 0.0" pbc="F F F"
C          2.69500       -2.31980       -1.12710
H          3.77980       -2.17930       -1.07200
H          2.49770       -3.30850       -1.55350
H          2.28320       -1.56220       -1.80250
C          2.07340       -2.21960        0.26500
H          2.51080       -2.98020        0.91770
H          2.27230       -1.24020        0.71010
N          0.63490       -2.42380        0.27390
H          0.02080       -1.62640        0.24320
C          0.10190       -3.67590        0.23040
C         -1.41360       -3.73900        0.21300
H         -1.89170       -2.78730        0.46440
H         -1.74910       -4.05090       -0.78120
H         -1.73480       -4.50330        0.92440
O          0.79660       -4.68060        0.20540
