13
Properties=species:S:1:pos:R:3:forces:R:3 energy=-10846.614294348678 stress="0.0 0.0 0.0 0.0 0.0 0.0 0.0 0.0 0.0" pbc="F F F"
O          4.29040      -17.40670        0.98310
C          4.51020      -16.93830       -1.36250
H          4.54900      -17.75210       -2.09670
H          3.49100      -16.55560       -1.28000
H          5.17920      -16.14760       -1.72090
C          4.97090      -17.42900       -0.01440
N          6.73900      -19.23010        0.01650
C          8.12680      -19.16850       -0.00010
H          8.73390      -20.06300       -0.00540
C          8.51300      -17.87400       -0.00780
H          9.45820      -17.35350       -0.01740
O          7.38800      -17.10250        0.00030
C          6.37270      -17.99460        0.02870
