19
Properties=species:S:1:pos:R:3:forces:R:3 energy=-12439.86880513697 stress="0.0 0.0 0.0 0.0 0.0 0.0 0.0 0.0 0.0" pbc="F F F"
C          5.62420      -17.48340       -0.00270
H          6.19360      -18.40900       -0.02330
C          4.23540      -17.49720        0.01010
H          3.70480      -18.44570        0.01440
C          3.52390      -16.30000        0.01360
H          2.43730      -16.31230        0.02220
C          4.20910      -15.08740        0.00160
H          3.66000      -14.14920        0.00130
C          5.59890      -15.07170       -0.00450
H          6.12460      -14.11870       -0.02710
C          6.31730      -16.27040       -0.00610
N          8.55600      -17.22990       -0.48190
C          9.84360      -16.82620       -0.23720
H         10.68930      -17.42430       -0.54990
C          9.85870      -15.63290        0.42760
H         10.66170      -15.01070        0.79370
N          8.53530      -15.29200        0.57910
H          8.17850      -14.50970        1.10440
C          7.78830      -16.28160        0.00820
