16
Properties=species:S:1:pos:R:3:forces:R:3 energy=-20705.161986745945 stress="0.0 0.0 0.0 0.0 0.0 0.0 0.0 0.0 0.0" pbc="F F F"
C         28.81710       -4.07820       -1.01950
N         29.44200       -4.72270        0.03750
H         28.90350       -4.71230        0.89660
C         31.06760       -6.59300        0.05880
H         30.31990       -7.37660        0.08850
C         32.47440       -6.81450        0.01760
H         32.93120       -7.79920        0.01580
C         33.18560       -5.65490       -0.01330
H         34.26000       -5.52890       -0.04420
S         32.16570       -4.26850        0.01540
C         30.73420       -5.27030        0.02970
O         27.74020       -3.54540       -0.84560
C         29.52880       -4.08960       -2.35070
H         30.19880       -4.94710       -2.46110
H         28.77680       -4.08530       -3.14220
H         30.12200       -3.17370       -2.44740
