17
Properties=species:S:1:pos:R:3:forces:R:3 energy=-12850.131111176777 stress="0.0 0.0 0.0 0.0 0.0 0.0 0.0 0.0 0.0" pbc="F F F"
C         15.46350      -17.03240        0.00070
H         14.51500      -16.50870        0.00690
C         15.54920      -18.41900        0.07670
H         14.65480      -19.03590        0.14590
N         16.70270      -19.07290        0.07190
C         17.80930      -18.31850       -0.01440
N         17.85380      -16.98820       -0.09530
C         16.67470      -16.36660       -0.08330
H         16.71640      -15.28170       -0.14730
N         18.97600      -19.06320       -0.00310
H         18.81280      -20.05870        0.08220
C         20.31540      -18.76310       -0.24170
C         20.72430      -17.32730       -0.43350
H         20.23500      -16.89520       -1.30960
H         20.42970      -16.71470        0.42140
H         21.80670      -17.31410       -0.56040
O         21.10830      -19.68290       -0.27670
