13
Properties=species:S:1:pos:R:3:forces:R:3 energy=-19635.298898753783 stress="0.0 0.0 0.0 0.0 0.0 0.0 0.0 0.0 0.0" pbc="F F F"
O         21.24580      -18.63090       -0.00160
C         21.70470      -16.28300        0.00000
H         22.11260      -15.78270        0.88420
H         20.61610      -16.19900       -0.00110
H         22.11460      -15.78100       -0.88220
C         22.07010      -17.74760       -0.00080
N         23.94630      -19.33470       -0.00120
C         25.31360      -19.37690       -0.00080
H         25.80650      -20.34090       -0.00130
C         25.94990      -18.17360        0.00020
H         27.01230      -17.97640        0.00070
S         24.79290      -16.90940        0.00070
C         23.52900      -18.10460       -0.00060
