15
Properties=species:S:1:pos:R:3:forces:R:3 energy=-7830.499184641469 stress="0.0 0.0 0.0 0.0 0.0 0.0 0.0 0.0 0.0" pbc="F F F"
C          2.55190       -2.22850        1.96390
H          3.63690       -2.08050        1.99020
H          2.32990       -3.20710        2.40290
H          2.08580       -1.45730        2.58650
C          2.03990       -2.17240        0.52590
H          2.53360       -2.94160       -0.07290
H          2.26000       -1.19910        0.07560
N          0.61160       -2.40820        0.41740
H         -0.02460       -1.62820        0.45340
C          0.11270       -3.66620        0.24960
C         -1.39890       -3.74590        0.14890
H         -1.66330       -4.65390       -0.39480
H         -1.82990       -2.87680       -0.35900
H         -1.83790       -3.80810        1.15120
O          0.83480       -4.65000        0.20390
