17
Properties=species:S:1:pos:R:3:forces:R:3 energy=-12850.241976801148 stress="0.0 0.0 0.0 0.0 0.0 0.0 0.0 0.0 0.0" pbc="F F F"
C         15.71840      -21.97050       -0.04160
H         14.76520      -21.45450       -0.08480
C         15.79700      -23.36230       -0.00820
H         14.89530      -23.96940       -0.02480
C         17.03840      -23.97000        0.03300
H         17.13580      -25.05340        0.04550
C         18.18170      -23.15450        0.06500
N         18.11910      -21.82320        0.05100
C         16.90740      -21.25950       -0.01790
H         16.89540      -20.17170       -0.03800
N         19.45190      -23.74030       -0.01770
H         19.44460      -24.71690       -0.28230
C         20.51580      -23.55700        0.89450
N         20.59020      -22.32140        1.44660
H         21.40920      -22.11630        1.99560
H         19.98640      -21.58040        1.11590
O         21.29960      -24.46660        1.09540
