22
Properties=species:S:1:pos:R:3:forces:R:3 energy=-13046.178163952693 stress="0.0 0.0 0.0 0.0 0.0 0.0 0.0 0.0 0.0" pbc="F F F"
C          4.01450       -2.08920       -1.72220
H          5.03920       -2.01250       -2.07320
C          3.28620       -0.93140       -1.46580
H          3.73640        0.04100       -1.64970
C          1.97550       -1.01820       -0.99260
C          1.10970        0.18670       -0.73790
C          1.38610       -2.27260       -0.83360
H          0.34880       -2.32430       -0.51410
C          2.11920       -3.42820       -1.07260
H          1.65820       -4.40150       -0.92350
C          3.43770       -3.33870       -1.51290
H          4.01130       -4.24180       -1.70410
N          1.71430        1.33010       -0.27110
C          0.88060        2.51580       -0.19150
H          0.13870        2.48470       -0.98920
H          1.50660        3.40610       -0.30150
H          0.34950        2.57500        0.76990
C          2.84780        1.33240        0.63580
H          3.57250        2.09380        0.32380
H          3.33990        0.36010        0.65940
H          2.52820        1.57270        1.66010
O         -0.09240        0.14580       -0.95970
