17
Properties=species:S:1:pos:R:3:forces:R:3 energy=-12850.267794754393 stress="0.0 0.0 0.0 0.0 0.0 0.0 0.0 0.0 0.0" pbc="F F F"
C         15.74520      -21.96060       -0.01230
H         14.79490      -21.43600       -0.02150
C         15.80740      -23.35220       -0.01100
H         14.89710      -23.94620       -0.01600
C         17.04050      -23.98320        0.00740
H         17.14440      -25.06100        0.03010
C         18.17960      -23.17330        0.00750
N         18.14430      -21.84150        0.00530
C         16.94120      -21.25950       -0.00120
H         16.94500      -20.17070       -0.00130
N         19.47440      -23.71910       -0.01410
H         20.17070      -22.99050       -0.11830
C         19.85800      -24.83720        0.72670
N         21.23070      -24.99550        0.77170
H         21.50620      -25.88760        1.15560
H         21.77280      -24.69790       -0.02690
O         19.08740      -25.58730        1.29280
