13
Properties=species:S:1:pos:R:3:forces:R:3 energy=-18603.16433594329 stress="0.0 0.0 0.0 0.0 0.0 0.0 0.0 0.0 0.0" pbc="F F F"
C         -1.18690       -1.37400       -0.60250
H         -0.55080       -1.12040       -1.45300
H         -0.97610       -0.74650        0.26520
H         -2.23800       -1.27340       -0.88060
S         -0.97930       -3.08670       -0.17050
O         -1.15540       -3.88450       -1.37430
N          0.62600       -3.26660        0.25450
H          1.00200       -3.96800       -0.37380
O         -1.80430       -3.32170        0.99920
C          1.52040       -2.12720        0.43980
H          1.16420       -1.50460        1.26510
H          1.65030       -1.50750       -0.45780
H          2.49500       -2.52730        0.72440
