16
Properties=species:S:1:pos:R:3:forces:R:3 energy=-20705.165463230784 stress="0.0 0.0 0.0 0.0 0.0 0.0 0.0 0.0 0.0" pbc="F F F"
C         29.03060       -3.60850        0.58930
N         29.40480       -4.78590       -0.03390
H         28.67600       -5.42970       -0.30590
C         31.06820       -6.60270        0.12900
H         30.34550       -7.40500        0.23870
C         32.48160       -6.78720        0.10930
H         32.96650       -7.75450        0.19010
C         33.15910       -5.61470       -0.02650
H         34.23080       -5.47120       -0.07300
S         32.10330       -4.25140       -0.10490
C         30.71440       -5.29020       -0.01130
O         29.84760       -2.84260        1.05420
C         27.53700       -3.36210        0.59950
H         27.14740       -3.30660       -0.42240
H         27.00480       -4.16350        1.12320
H         27.34450       -2.41680        1.10650
