18
Properties=species:S:1:pos:R:3:forces:R:3 energy=-8899.580413617805 stress="0.0 0.0 0.0 0.0 0.0 0.0 0.0 0.0 0.0" pbc="F F F"
C          2.93890       -3.19450       -0.54910
H          3.93010       -2.77320       -0.74840
H          3.04870       -4.06910        0.09060
H          2.50590       -3.51850       -1.49890
C          2.08230       -2.12350        0.10990
H          2.15200       -1.19950       -0.48100
H          2.50270       -1.87790        1.09990
N          0.65130       -2.40910        0.26240
C         -0.13050       -1.20900        0.49870
H         -1.17200       -1.44010        0.71740
H          0.27480       -0.65320        1.35420
H         -0.09720       -0.54360       -0.37490
C          0.11520       -3.67260        0.22640
C         -1.40200       -3.76410        0.21120
H         -1.82580       -3.46490        1.17620
H         -1.84640       -3.14020       -0.56960
H         -1.66020       -4.80770        0.03030
O          0.78660       -4.69430        0.21540
