20
Properties=species:S:1:pos:R:3:forces:R:3 energy=-12003.051170727671 stress="0.0 0.0 0.0 0.0 0.0 0.0 0.0 0.0 0.0" pbc="F F F"
C         13.25170      -37.20940       -0.00600
H         13.79350      -38.15210       -0.01050
C         11.86060      -37.19950       -0.00820
H         11.31570      -38.14000       -0.01580
C         11.17080      -35.99110        0.00150
H         10.08340      -35.98320        0.00100
C         11.87770      -34.79240        0.01330
H         11.34470      -33.84490        0.02240
C         13.26850      -34.80160        0.01190
H         13.82290      -33.86650        0.02210
C         13.97050      -36.01050       -0.00000
C         16.34770      -36.21850        1.04290
H         16.09040      -36.45800        2.06620
C         17.65660      -36.04830        0.51180
H         18.58960      -36.14250        1.05130
C         17.51970      -35.73800       -0.81760
H         18.25680      -35.53260       -1.58210
N         16.18090      -35.71170       -1.10550
H         15.78170      -35.51330       -2.00920
C         15.45080      -36.01750        0.01830
