14
Properties=species:S:1:pos:R:3:forces:R:3 energy=-12410.736089512537 stress="0.0 0.0 0.0 0.0 0.0 0.0 0.0 0.0 0.0" pbc="F F F"
C         -0.14650        0.00130        0.20870
H          0.06440       -0.59400        1.10290
H          0.15700       -0.58970       -0.66230
C          0.60340        1.33280        0.23570
H          0.34830        1.90330       -0.66410
H          0.25490        1.92290        1.09130
C          2.11290        1.13210        0.31750
H          2.48110        0.56410       -0.54450
H          2.38630        0.57930        1.22350
H          2.64380        2.08910        0.33770
C         -1.64330        0.16370        0.12660
F         -2.25690       -1.01200       -0.09730
F         -2.14710        0.66710        1.27300
F         -2.00500        1.00760       -0.86060
