15
Properties=species:S:1:pos:R:3:forces:R:3 energy=-7830.503305260571 stress="0.0 0.0 0.0 0.0 0.0 0.0 0.0 0.0 0.0" pbc="F F F"
C          2.53790       -2.42720        1.99670
H          3.62230       -2.28710        2.06020
H          2.30230       -3.44220        2.33240
H          2.05790       -1.71630        2.67780
C          2.05860       -2.22970        0.55950
H          2.56180       -2.94520       -0.09680
H          2.29770       -1.22280        0.20470
N          0.62890       -2.42790        0.39250
H          0.01210       -1.63230        0.41620
C          0.09860       -3.67810        0.29650
C         -1.41080       -3.73710        0.15750
H         -1.86460       -2.76870       -0.07470
H         -1.84320       -4.11520        1.08940
H         -1.65650       -4.44980       -0.63310
O          0.79070       -4.68460        0.32200
