18
Properties=species:S:1:pos:R:3:forces:R:3 energy=-6416.019858586439 stress="0.0 0.0 0.0 0.0 0.0 0.0 0.0 0.0 0.0" pbc="F F F"
C          4.60940       -2.06060       -0.29750
H          5.66040       -1.79330       -0.14690
H          4.57170       -2.92010       -0.97540
C          3.83630       -0.86860       -0.87510
H          4.32630       -0.54240       -1.80060
H          3.91660       -0.01810       -0.18210
C          2.36840       -1.12760       -1.16290
C          1.88220       -0.68700       -2.52280
H          2.02780        0.39270       -2.65770
H          0.82510       -0.90320       -2.68890
H          2.45390       -1.19140       -3.31200
C          1.58840       -1.67640       -0.22930
H          2.04700       -1.94040        0.72430
C          0.12150       -1.97230       -0.31460
H         -0.43050       -1.41930        0.45580
H         -0.06900       -3.03690       -0.13090
H          4.21240       -2.38050        0.67130
H         -0.31150       -1.71690       -1.28390
