23
Properties=species:S:1:pos:R:3:forces:R:3 energy=-24888.610096849145 stress="0.0 0.0 0.0 0.0 0.0 0.0 0.0 0.0 0.0" pbc="F F F"
C          4.17530       -1.56530       -0.73020
H          5.09220       -0.98220       -0.72860
C          2.94420       -0.91980       -0.70720
H          2.88230        0.16510       -0.68740
C          1.76810       -1.66520       -0.70920
S          0.27670       -0.68270       -0.67780
N         -0.97110       -1.76220       -0.68510
C         -1.29730       -2.43670        0.55980
H         -2.31620       -2.82590        0.48400
H         -1.26000       -1.70610        1.37000
H         -0.61560       -3.26570        0.79450
C         -1.32100       -2.39260       -1.94660
H         -1.29870       -1.63400       -2.73110
H         -2.33850       -2.78450       -1.86520
H         -0.64410       -3.21260       -2.22310
C          1.81700       -3.05830       -0.73430
H          0.91580       -3.66580       -0.73650
C          3.05380       -3.69660       -0.75730
H          3.09160       -4.78120       -0.77680
C          4.23280       -2.95580       -0.75530
H          5.19460       -3.46210       -0.77340
O          0.21200        0.06020       -1.92790
O          0.23580        0.01580        0.59860
