14
Properties=species:S:1:pos:R:3:forces:R:3 energy=-31478.07609269701 stress="0.0 0.0 0.0 0.0 0.0 0.0 0.0 0.0 0.0" pbc="F F F"
C          1.99450      -24.67250       -0.87920
H          0.94210      -24.73080       -1.12050
C          2.82910      -25.67600       -0.50920
H          2.54350      -26.71420       -0.40100
N          4.12790      -25.31810       -0.26210
C          4.28720      -24.04970       -0.43360
S          2.85540      -23.18530       -0.92760
S          5.92090      -23.30240       -0.23730
C          5.58380      -21.76560        0.60010
H          5.04070      -21.09910       -0.07070
H          6.55910      -21.34300        0.84780
H          5.02160      -21.97880        1.51060
O          6.43120      -22.97010       -1.56170
O          6.67480      -24.14310        0.67790
