17
Properties=species:S:1:pos:R:3:forces:R:3 energy=-22204.847000139696 stress="0.0 0.0 0.0 0.0 0.0 0.0 0.0 0.0 0.0" pbc="F F F"
C         30.12550      -21.09870       -0.01180
H         30.70510      -20.18090       -0.03380
C         28.73710      -21.08930        0.02420
H         28.19150      -20.14980        0.04940
C         28.05880      -22.30290        0.01870
H         26.97370      -22.34290        0.04180
C         28.80420      -23.47740       -0.02380
H         28.31090      -24.44730       -0.03680
N         30.13560      -23.50550       -0.04850
C         30.77570      -22.33250       -0.02820
N         32.98360      -21.69050       -0.90630
C         34.31050      -22.01120       -0.75680
H         35.04300      -21.50760       -1.37490
C         34.58790      -22.95760        0.18120
H         35.55060      -23.35700        0.46740
S         33.13190      -23.49940        0.91150
C         32.25670      -22.38410       -0.08280
