13
Properties=species:S:1:pos:R:3:forces:R:3 energy=-18603.361588543703 stress="0.0 0.0 0.0 0.0 0.0 0.0 0.0 0.0 0.0" pbc="F F F"
C         -1.12070       -1.39860       -0.62070
H         -0.91140       -0.78490        0.25760
H         -0.41380       -1.18720       -1.42470
H         -2.14560       -1.23820       -0.95950
S         -0.98570       -3.11660       -0.17280
O         -1.77550       -3.31550        1.03290
N          0.61920       -3.25550        0.26800
H          0.65270       -3.39030        1.27340
O         -1.21900       -3.90650       -1.37160
C          1.44800       -4.19880       -0.48800
H          1.08300       -5.23220       -0.44410
H          1.47700       -3.88120       -1.53210
H          2.45780       -4.14770       -0.07560
