17
Properties=species:S:1:pos:R:3:forces:R:3 energy=-11375.995452182759 stress="0.0 0.0 0.0 0.0 0.0 0.0 0.0 0.0 0.0" pbc="F F F"
O         19.52920      -10.63020       -1.23480
C         18.99770      -11.27130        1.01190
H         19.44010      -10.68530        1.82650
H         17.99960      -10.90050        0.77410
H         18.94780      -12.31380        1.34720
C         19.87780      -11.17130       -0.20640
N         21.66840      -12.93150       -0.08230
C         23.03680      -12.88490        0.01390
H         23.63420      -13.78700        0.01400
C         23.46490      -11.58760        0.08760
H         24.44700      -11.14180        0.16490
N         22.33270      -10.81320        0.03730
C         21.28390      -11.67850       -0.04230
C         22.26550       -9.36350        0.03200
H         23.25560       -8.97050       -0.20820
H         21.55490       -9.03590       -0.73140
H         21.95400       -8.97910        1.00840
