17
Properties=species:S:1:pos:R:3:forces:R:3 energy=-22204.721700854618 stress="0.0 0.0 0.0 0.0 0.0 0.0 0.0 0.0 0.0" pbc="F F F"
C         30.12620      -21.10200       -0.00970
H         30.70270      -20.18170       -0.01510
C         28.73830      -21.08760        0.00190
H         28.19600      -20.14640        0.00880
C         28.05900      -22.29990        0.00430
H         26.97360      -22.34080        0.01370
C         28.80390      -23.47440       -0.00630
H         28.30920      -24.44390       -0.00560
N         30.13760      -23.50820       -0.01900
C         30.77750      -22.33720       -0.01910
N         32.98730      -22.80290       -1.00930
C         34.32370      -22.71450       -0.70150
H         35.04880      -23.01650       -1.44610
C         34.61840      -22.24810        0.54300
H         35.58980      -22.09880        0.99430
S         33.16630      -21.89140        1.38620
C         32.26650      -22.40120       -0.00840
