18
Properties=species:S:1:pos:R:3:forces:R:3 energy=-21768.53478557942 stress="0.0 0.0 0.0 0.0 0.0 0.0 0.0 0.0 0.0" pbc="F F F"
C         21.82920      -21.15400        0.00990
H         22.39530      -20.22670        0.03260
C         20.43860      -21.13570       -0.00900
H         19.90960      -20.18620       -0.01780
C         19.72610      -22.33190       -0.00880
H         18.63920      -22.31690       -0.02140
C         20.40620      -23.54660        0.01440
H         19.85300      -24.48160        0.02310
C         21.79640      -23.56770        0.02740
H         22.32920      -24.51460        0.05170
C         22.51550      -22.37000        0.00560
N         24.71050      -21.64810        0.84380
C         26.04920      -21.88970        0.65690
H         26.76450      -21.36540        1.27760
C         26.36300      -22.78350       -0.31940
H         27.34090      -23.11730       -0.63720
S         24.92260      -23.37190       -1.04630
C         23.99610      -22.36490        0.02720
