23
Properties=species:S:1:pos:R:3:forces:R:3 energy=-24888.75031901055 stress="0.0 0.0 0.0 0.0 0.0 0.0 0.0 0.0 0.0" pbc="F F F"
C          3.31590       -3.15760       -1.84430
H          3.60630       -3.68660       -2.74710
C          2.17700       -2.36030       -1.85270
H          1.60230       -2.23100       -2.76700
C          1.81270       -1.68450       -0.69180
S          0.30320       -0.74490       -0.65520
N         -0.91760       -1.87500       -0.69140
C         -1.19970       -2.53950       -1.95360
H         -1.15550       -1.80670       -2.76090
H         -0.50870       -3.36740       -2.16820
H         -2.21660       -2.93920       -1.90560
C         -1.08870       -2.68070        0.50910
H         -1.04770       -2.02690        1.38150
H         -2.07950       -3.14140        0.47160
H         -0.33150       -3.47230        0.60640
C          2.57660       -1.78140        0.46630
H          2.26900       -1.23020        1.35060
C          3.71480       -2.58070        0.46410
H          4.31600       -2.66440        1.36530
C          4.08300       -3.27260       -0.68740
H          4.97250       -3.89770       -0.68500
O          0.23100       -0.08430        0.63650
O          0.21750       -0.00120       -1.90210
