16
Properties=species:S:1:pos:R:3:forces:R:3 energy=-20705.118865378343 stress="0.0 0.0 0.0 0.0 0.0 0.0 0.0 0.0 0.0" pbc="F F F"
C         28.90670       -3.78240        0.83420
N         29.42600       -4.74260       -0.02320
H         28.88900       -4.84320       -0.87840
C         31.06740       -6.58970        0.01360
H         30.32520       -7.37860        0.01510
C         32.47610       -6.79990        0.03940
H         32.93990       -7.78070        0.06000
C         33.18000       -5.63580        0.02710
H         34.25350       -5.50220        0.03790
S         32.14930       -4.25690       -0.02260
C         30.72690       -5.26970        0.02240
O         27.91880       -3.15730        0.50970
C         29.58530       -3.61900        2.17220
H         30.24450       -4.45750        2.41340
H         28.81210       -3.51060        2.93670
H         30.17140       -2.69370        2.16710
