19
Properties=species:S:1:pos:R:3:forces:R:3 energy=-12439.841860129623 stress="0.0 0.0 0.0 0.0 0.0 0.0 0.0 0.0 0.0" pbc="F F F"
C          5.61970      -17.48810        0.00060
H          6.18600      -18.41590        0.01080
C          4.23030      -17.49730       -0.00170
H          3.69600      -18.44370       -0.01000
C          3.52350      -16.29740        0.01070
H          2.43680      -16.30570        0.01100
C          4.21270      -15.08700        0.02540
H          3.66610      -14.14750        0.03580
C          5.60260      -15.07630        0.01910
H          6.13770      -14.12870        0.03590
C          6.31600      -16.27790        0.01260
N          8.57300      -17.14860        0.58210
C          9.85200      -16.78000        0.24830
H         10.70850      -17.32170        0.62700
C          9.84260      -15.70020       -0.58890
H         10.63120      -15.13730       -1.06570
N          8.51310      -15.39240       -0.75730
H          8.13460      -14.68690       -1.36920
C          7.78820      -16.28530       -0.02280
