13
Properties=species:S:1:pos:R:3:forces:R:3 energy=-19635.258072564007 stress="0.0 0.0 0.0 0.0 0.0 0.0 0.0 0.0 0.0" pbc="F F F"
O         21.35220      -18.10950        0.87110
C         21.60010      -16.91870       -1.19670
H         22.00840      -17.31020       -2.13520
H         20.50840      -16.93180       -1.22010
H         21.94910      -15.88520       -1.09110
C         22.07630      -17.73850       -0.02090
N         23.94190      -19.34990        0.01590
C         25.31380      -19.39810        0.00380
H         25.80250      -20.36400        0.00890
C         25.94940      -18.19480       -0.01030
H         27.01200      -17.99460       -0.01960
S         24.79120      -16.92620       -0.01340
C         23.53420      -18.11990        0.00430
