22
Properties=species:S:1:pos:R:3:forces:R:3 energy=-13046.116807918143 stress="0.0 0.0 0.0 0.0 0.0 0.0 0.0 0.0 0.0" pbc="F F F"
C          2.11500       -3.43430       -1.14460
H          1.65820       -4.41730       -1.05750
C          1.35840       -2.29560       -0.88920
H          0.30910       -2.37640       -0.61620
C          1.94490       -1.03330       -0.98410
C          1.10620        0.19490       -0.73620
C          3.27820       -0.91350       -1.37650
H          3.72520        0.07460       -1.46070
C          4.02980       -2.05460       -1.63650
H          5.07110       -1.95880       -1.93020
C          3.45150       -3.31570       -1.51650
H          4.04250       -4.20590       -1.71780
N          1.27430        0.81490        0.47440
C          0.53500        2.03530        0.72830
H         -0.13100        2.21310       -0.11540
H          1.21410        2.89010        0.84250
H         -0.05600        1.94050        1.64790
C          2.20560        0.39600        1.50280
H          2.55610       -0.61820        1.31520
H          1.70080        0.40790        2.47580
H          3.07260        1.06860        1.56050
O          0.29110        0.57770       -1.56220
