16
Properties=species:S:1:pos:R:3:forces:R:3 energy=-9433.37745112054 stress="0.0 0.0 0.0 0.0 0.0 0.0 0.0 0.0 0.0" pbc="F F F"
C         -2.12410       -0.95790       -2.13080
H         -2.65490       -1.77530       -2.61260
C         -2.83050        0.03680       -1.46120
H         -3.91600        0.00250       -1.41880
C         -2.13720        1.07740       -0.84800
H         -2.68060        1.86010       -0.32440
C         -0.74880        1.12680       -0.90260
H         -0.19020        1.93550       -0.44010
C         -0.04910        0.12390       -1.56860
C         -0.73370       -0.92260       -2.18290
H         -0.17120       -1.68920       -2.71050
O          1.31880        0.23170       -1.66030
C          2.04680       -0.74980       -0.94580
H          3.10420       -0.52950       -1.10840
H          1.83590       -1.76480       -1.30950
H          1.82660       -0.70360        0.12920
