15
Properties=species:S:1:pos:R:3:forces:R:3 energy=-5346.418717213524 stress="0.0 0.0 0.0 0.0 0.0 0.0 0.0 0.0 0.0" pbc="F F F"
C          4.13700        0.16600        0.19170
H          5.21640        0.31540        0.29650
H          3.76260       -0.23620        1.13900
C          3.83550       -0.78690       -0.97300
H          4.37560       -1.72940       -0.79780
H          4.24480       -0.36920       -1.89920
C          2.36430       -1.08120       -1.16250
H          1.90490       -0.81640       -2.11770
C          1.59730       -1.64600       -0.23220
H          2.03890       -1.90310        0.73320
C          0.14370       -1.97370       -0.40360
H         -0.46650       -1.47280        0.35780
H         -0.03220       -3.05070       -0.29330
H          3.67140        1.14500        0.03810
H         -0.21960       -1.66720       -1.39030
