18
Properties=species:S:1:pos:R:3:forces:R:3 energy=-6416.07318253824 stress="0.0 0.0 0.0 0.0 0.0 0.0 0.0 0.0 0.0" pbc="F F F"
C          4.06590        0.65030       -0.47410
H          5.12850        0.82580       -0.27530
H          3.50300        0.93830        0.42010
C          3.81420       -0.82000       -0.83820
H          4.14370       -1.45990       -0.00850
H          4.43470       -1.08510       -1.70370
C          2.36300       -1.12040       -1.15290
C          1.89790       -0.69790       -2.52450
H          2.09210        0.36860       -2.69520
H          0.83100       -0.87100       -2.68430
H          2.44500       -1.24580       -3.30340
C          1.58430       -1.68510       -0.22470
H          2.06250       -1.98800        0.70960
C          0.11540       -1.97970       -0.30670
H         -0.42910       -1.46830        0.49670
H         -0.07290       -3.05300       -0.18200
H          3.76270        1.31820       -1.28840
H         -0.32820       -1.67240       -1.25570
