18
Properties=species:S:1:pos:R:3:forces:R:3 energy=-12979.62746745999 stress="0.0 0.0 0.0 0.0 0.0 0.0 0.0 0.0 0.0" pbc="F F F"
C         12.73360       -7.67820        0.00050
H         13.29160       -6.74640        0.00130
C         11.34620       -7.67230        0.00160
H         10.79930       -6.73320        0.00310
C         10.67150       -8.88650        0.00070
H          9.58680       -8.93470        0.00140
C         11.42940      -10.05580       -0.00130
H         10.94210      -11.02950       -0.00210
N         12.75860      -10.08010       -0.00230
C         13.40130       -8.90560       -0.00140
C         15.82240       -7.96720       -0.00220
H         15.66400       -6.89680       -0.00080
C         17.08150       -8.64310       -0.00400
H         18.06860       -8.20160       -0.00430
C         16.79130       -9.96750       -0.00530
H         17.39690      -10.86190       -0.00690
O         15.45550      -10.16790       -0.00450
C         14.86910       -8.94380       -0.00260
