19
Properties=species:S:1:pos:R:3:forces:R:3 energy=-11976.978580460447 stress="0.0 0.0 0.0 0.0 0.0 0.0 0.0 0.0 0.0" pbc="F F F"
C         -0.12780        0.06020       -1.52790
N         -1.48230        0.13060       -1.12030
H         -1.68650        0.81700       -0.40940
C          0.87150        0.48910       -0.65180
H          0.60870        0.82090        0.35060
C          2.20170        0.48000       -1.05470
H          2.97320        0.80450       -0.36100
C          2.54290        0.06900       -2.33990
H          3.58200        0.06680       -2.65790
C          1.54050       -0.33610       -3.21670
H          1.79610       -0.65760       -4.22370
C          0.20790       -0.34440       -2.81960
H         -0.57410       -0.67620       -3.49390
C         -2.40010       -0.88400       -1.29000
C         -3.71220       -0.65600       -0.56240
H         -3.56550       -0.66250        0.52360
H         -4.15070        0.30870       -0.83830
H         -4.40010       -1.45700       -0.83160
O         -2.17850       -1.86200       -1.97680
