10
Properties=species:S:1:pos:R:3:forces:R:3 energy=-6263.446404356376 stress="0.0 0.0 0.0 0.0 0.0 0.0 0.0 0.0 0.0" pbc="F F F"
O          0.14540       -2.09220        1.22630
H         -0.02730       -1.47840        1.94880
C          0.39280       -3.36740        1.78740
H         -0.46240       -3.72350        2.38080
H          1.28010       -3.36510        2.43970
C          0.61110       -4.32900        0.63750
H          1.55570       -4.08480        0.12680
H         -0.20790       -4.19810       -0.08530
O          0.62570       -5.63540        1.18070
H          0.73140       -6.25830        0.45290
