18
Properties=species:S:1:pos:R:3:forces:R:3 energy=-8899.79149868944 stress="0.0 0.0 0.0 0.0 0.0 0.0 0.0 0.0 0.0" pbc="F F F"
C          2.56440       -1.79570        1.83320
H          3.65700       -1.72370        1.86160
H          2.15750       -0.80300        2.05730
H          2.24760       -2.48390        2.62370
C          2.10430       -2.28720        0.46640
H          2.51070       -3.27550        0.24590
H          2.45000       -1.59410       -0.31400
N          0.65590       -2.41370        0.36560
C         -0.14950       -1.20910        0.39440
H         -0.89630       -1.21560       -0.40630
H         -0.67730       -1.06580        1.34910
H          0.50170       -0.34660        0.23100
C          0.10670       -3.66660        0.29260
C         -1.40660       -3.73820        0.21970
H         -1.88550       -3.17440        1.02550
H         -1.76920       -3.33760       -0.73340
H         -1.69570       -4.78660        0.28950
O          0.79000       -4.68040        0.27600
