20
Properties=species:S:1:pos:R:3:forces:R:3 energy=-12003.134979779941 stress="0.0 0.0 0.0 0.0 0.0 0.0 0.0 0.0 0.0" pbc="F F F"
C         13.25350      -37.20120       -0.00470
H         13.78230      -38.15080       -0.01120
C         11.86480      -37.19600       -0.00960
H         11.32510      -38.13920       -0.01990
C         11.16830      -35.99160       -0.00150
H         10.08190      -35.98600       -0.00530
C         11.87780      -34.79360        0.01160
H         11.34730      -33.84420        0.01800
C         13.26710      -34.79920        0.01640
H         13.78240      -33.84050        0.02670
C         13.98220      -36.00510        0.00840
C         16.32890      -37.11410        0.00690
H         16.06480      -38.16430       -0.00320
C         17.64670      -36.59260        0.01620
H         18.56870      -37.15770        0.01450
C         17.54370      -35.22480        0.02790
H         18.30670      -34.45900        0.03730
N         16.21600      -34.90410        0.02600
H         15.85330      -33.96630        0.03300
C         15.45010      -36.04730        0.01320
