16
Properties=species:S:1:pos:R:3:forces:R:3 energy=-9433.486697645272 stress="0.0 0.0 0.0 0.0 0.0 0.0 0.0 0.0 0.0" pbc="F F F"
C         -2.12130       -0.96330       -2.11400
H         -2.65780       -1.78410       -2.58550
C         -2.82010        0.02960       -1.44140
H         -3.90440       -0.00470       -1.38230
C         -2.11510        1.07330       -0.84260
H         -2.65150        1.85830       -0.31500
C         -0.73200        1.12370       -0.91670
H         -0.16430        1.93390       -0.46760
C         -0.03330        0.11560       -1.58760
C         -0.72930       -0.92960       -2.19360
H         -0.20030       -1.71980       -2.71700
O          1.31850        0.27120       -1.65370
C          2.08620       -0.86540       -1.98630
H          3.12790       -0.58860       -1.81640
H          1.95600       -1.14370       -3.04070
H          1.82700       -1.72500       -1.35500
