12
Properties=species:S:1:pos:R:3:forces:R:3 energy=-6760.795930284705 stress="0.0 0.0 0.0 0.0 0.0 0.0 0.0 0.0 0.0" pbc="F F F"
C         -0.58460       -3.37370        2.49190
H         -0.54040       -2.43830        3.05230
H         -1.61750       -3.51610        2.14410
H         -0.33800       -4.18690        3.18180
N          0.37650       -3.30670        1.41310
H          0.68820       -2.40220        1.08800
C          0.72140       -4.33010        0.57500
C          0.20860       -5.70720        0.94720
H          0.61920       -6.03480        1.90890
H         -0.88340       -5.72760        1.02600
H          0.52660       -6.40530        0.17310
O          1.42120       -4.13440       -0.40440
