18
Properties=species:S:1:pos:R:3:forces:R:3 energy=-12876.44700272439 stress="0.0 0.0 0.0 0.0 0.0 0.0 0.0 0.0 0.0" pbc="F F F"
C         13.90370      -15.01280       -0.01440
H         14.45380      -14.07560       -0.01380
C         12.51690      -15.06070       -0.02040
H         11.93430      -14.14350       -0.03160
C         11.88570      -16.30050       -0.00880
H         10.80320      -16.38330       -0.01140
C         12.67690      -17.44530        0.00780
H         12.21960      -18.43390        0.01780
N         14.00830      -17.41880        0.00910
C         14.60420      -16.21880       -0.00330
N         16.89310      -15.22590        0.19490
C         18.14750      -15.77720        0.16940
H         19.03480      -15.16850        0.28660
C         18.08050      -17.13390       -0.01420
H         18.84080      -17.89770       -0.08530
N         16.74460      -17.41590       -0.10510
H         16.28060      -18.30690       -0.20420
C         16.07440      -16.24210        0.01960
