43
astex_1meh_18.log	Energy: -697122.2222673
C         -3.06962       -2.44846        0.15856
O         -2.50166       -3.51353        0.05085
C         -2.52285       -1.11393       -0.05557
C         -3.50855       -0.16932        0.16043
C         -4.75251       -0.93193        0.54297
O         -4.37285       -2.32016        0.51163
C         -3.26201        1.18258       -0.00259
C         -4.32282        2.23338        0.19212
C         -1.94569        1.51319       -0.39256
C         -0.92788        0.57377       -0.62417
C         -1.23445       -0.78246       -0.45356
O         -0.30596       -1.72980       -0.68529
C          0.46264        0.97841       -1.06005
C          1.47375        0.86147        0.05360
C          2.54587        0.06558        0.09699
C          3.46536        0.12479        1.29741
C          4.86191        0.69894        0.98858
C          5.74139       -0.16446        0.09975
O          6.23990        0.20499       -0.92900
O          5.96791       -1.42447        0.54664
C          2.93460       -0.90146       -0.99432
O         -1.65704        2.84053       -0.61159
C         -1.28249        3.55124        0.55784
H         -5.57761       -0.78972       -0.16310
H         -5.10856       -0.70113        1.55217
H         -4.42225        2.52463        1.24559
H         -5.30150        1.86666       -0.13699
H         -4.08443        3.13116       -0.38356
H         -0.72410       -2.59918       -0.52350
H          0.42559        2.01464       -1.41219
H          0.76186        0.36130       -1.91246
H          1.28693        1.51122        0.91193
H          3.01290        0.74967        2.07518
H          3.55756       -0.88210        1.73519
H          4.76611        1.66770        0.49299
H          5.40180        0.85949        1.93206
H          5.51077       -1.56585        1.38728
H          3.68025       -0.46382       -1.66935
H          2.07194       -1.21795       -1.58420
H          3.38812       -1.80324       -0.56652
H         -2.07761        3.52551        1.31445
H         -0.36371        3.13815        0.99429
H         -1.10635        4.58438        0.25226
