43
astex_1meh_00.log	Energy: -697131.3483446
C          3.68112       -1.45086        0.43735
O          3.84326       -2.64154        0.27883
C          2.59117       -0.61902       -0.05625
C          2.78917        0.68972        0.34181
C          4.06879        0.70233        1.14047
O          4.53431       -0.65994        1.13568
C          1.90190        1.69334       -0.00630
C          2.10265        3.13225        0.38939
C          0.79670        1.28228       -0.78358
C          0.58543       -0.03642       -1.21923
C          1.51112       -1.01291       -0.83554
O          1.34805       -2.29651       -1.21629
C         -0.59843       -0.41540       -2.08022
C         -1.70795       -1.04220       -1.27180
C         -2.97320       -0.62914       -1.15489
C         -3.95121       -1.40644       -0.28189
C         -3.50116       -1.57139        1.16827
C         -3.39667       -0.25939        1.90401
O         -3.65652        0.83658        1.46066
O         -2.97464       -0.43387        3.17136
C         -3.56265        0.57313       -1.84246
O         -0.10707        2.23653       -1.18023
C         -1.10669        2.51906       -0.20405
H          3.92426        1.00670        2.18221
H          4.84873        1.32954        0.69561
H          3.16722        3.39190        0.39563
H          1.59267        3.79667       -0.31272
H          1.71044        3.33948        1.39320
H          2.10216       -2.80691       -0.85955
H         -0.94210        0.47021       -2.61667
H         -0.25425       -1.14362       -2.82541
H         -1.40357       -1.94318       -0.73412
H         -4.11445       -2.40480       -0.70610
H         -4.92363       -0.90169       -0.28977
H         -4.19634       -2.20747        1.73013
H         -2.52531       -2.06557        1.23448
H         -2.94605        0.45140        3.57020
H         -3.99027        1.24648       -1.09028
H         -4.37937        0.26842       -2.50984
H         -2.83576        1.13276       -2.43620
H         -0.66356        2.96235        0.69753
H         -1.66117        1.61498        0.07135
H         -1.78930        3.23882       -0.66026
