22
astex_1n2j_14.log	Energy: -336737.8154796
O         -2.19324        1.40775       -0.44002
C         -1.84847        0.29025       -0.15249
O         -2.55605       -0.49495        0.66828
C         -0.55215       -0.35287       -0.66655
O         -0.61690       -1.76848       -0.46687
C          0.69400        0.19022        0.06673
C          0.57125       -0.02705        1.57860
C          0.87076        1.68084       -0.24346
C          1.91376       -0.59138       -0.46581
O          3.13776       -0.14210        0.07750
H         -2.08233       -1.34810        0.70768
H         -0.46989       -0.11607       -1.73528
H         -1.02206       -2.17047       -1.24529
H          0.35641       -1.07650        1.80960
H          1.51892        0.23240        2.05915
H         -0.21893        0.59556        2.01379
H          1.03761        1.84901       -1.31586
H          1.73152        2.07433        0.30835
H         -0.00800        2.26103        0.04661
H          1.82723       -1.64410       -0.18787
H          1.92789       -0.53625       -1.56830
H          3.33412        0.72133       -0.30586
