22
astex_1n2j_01.log	Energy: -336743.1484058
O         -1.44962        1.70930       -0.00918
C         -1.47651        0.49949       -0.04623
O         -2.48441       -0.20540        0.46401
C         -0.35496       -0.34367       -0.66365
O         -0.82966       -1.67741       -0.85689
C          0.91872       -0.38035        0.21358
C          2.02481       -1.05280       -0.60527
C          0.65503       -1.15874        1.50540
C          1.34807        1.05833        0.56898
O          1.33741        1.92963       -0.54064
H         -2.28500       -1.14217        0.26416
H         -0.09362        0.12352       -1.61902
H         -1.13177       -1.76941       -1.76849
H          1.70159       -2.02966       -0.97899
H          2.91637       -1.20349        0.01391
H          2.30672       -0.41955       -1.45412
H         -0.17705       -0.72912        2.07758
H          0.42237       -2.20680        1.29292
H          1.54400       -1.13460        2.14630
H          2.37618        1.02053        0.94912
H          0.71418        1.44874        1.37702
H          0.42533        2.25941       -0.59569
