22
astex_1n2j_07.log	Energy: -336738.5848388
O         -1.44680        1.52365        0.63590
C         -1.53422        0.48485        0.02670
O         -2.73663       -0.03744       -0.30866
C         -0.39892       -0.36693       -0.53778
O         -0.80424       -1.71446       -0.66249
C          0.90501       -0.32799        0.28835
C          1.90322       -1.29787       -0.35908
C          0.63653       -0.74450        1.73745
C          1.50679        1.08133        0.27072
O          1.70262        1.48202       -1.07848
H         -3.40597        0.57545        0.03739
H         -0.17548        0.07159       -1.52420
H         -1.69086       -1.72110       -1.04544
H          1.51566       -2.31929       -0.35503
H          2.11387       -1.00633       -1.39278
H          2.84790       -1.27913        0.19730
H         -0.02042       -0.03035        2.24653
H          1.57547       -0.80181        2.30011
H          0.16487       -1.73178        1.76222
H          0.84380        1.77846        0.79420
H          2.46816        1.04306        0.80923
H          1.93287        2.41768       -1.07775
