22
astex_1n2j_16.log	Energy: -336736.1741539
O         -1.98112        1.50314       -0.00464
C         -1.87114        0.30788       -0.09977
O         -2.90344       -0.51766        0.11150
C         -0.57800       -0.43016       -0.50966
O         -0.70721       -1.81065       -0.15338
C          0.72925        0.21127        0.00004
C          0.94867        1.57461       -0.66684
C          0.70113        0.37595        1.52521
C          1.89228       -0.72129       -0.40919
O          3.16066       -0.20496       -0.05824
H         -2.56235       -1.42474       -0.00875
H         -0.55850       -0.42898       -1.60742
H         -0.46578       -1.89764        0.78034
H          0.20190        2.30130       -0.34482
H          1.95023        1.93603       -0.41739
H          0.88928        1.48524       -1.75894
H          0.59703       -0.58356        2.05459
H          1.63346        0.83437        1.87156
H         -0.11894        1.03077        1.83497
H          1.74964       -1.72561        0.01333
H          1.89964       -0.82880       -1.50029
H          3.30002       -0.36685        0.88211
