34
astex_1of1_14.log	Energy: -550390.5223132
O          2.48246        2.47713        0.34345
C          3.42810        1.46940        0.68242
C          2.85921        0.06733        0.48082
C          2.51844       -0.22173       -0.99882
O          3.62781       -0.53964       -1.80534
C          1.38249       -1.25805       -0.97116
C          0.61224       -0.91138        0.30083
N         -0.76654       -0.51430        0.18803
C         -1.71904       -1.52096        0.09014
O         -1.44566       -2.70361        0.13086
N         -3.01104       -1.05122       -0.05793
C         -3.44288        0.27238       -0.17979
O         -4.62293        0.52909       -0.32599
C         -2.36361        1.26200       -0.11956
C         -1.10448        0.82268        0.05242
C         -2.73843        2.70674       -0.25354
C          1.54032       -0.14131        1.21204
C          1.09753       -1.53133        1.57034
H          2.61441        2.71403       -0.58131
H          3.68094        1.62349        1.73692
H          4.34968        1.57854        0.09520
H          3.61539       -0.65881        0.81943
H          2.11134        0.70265       -1.42893
H          3.97415       -1.39074       -1.50500
H          1.78617       -2.27835       -0.92192
H          0.74982       -1.20292       -1.86121
H         -3.72586       -1.76484       -0.12195
H         -0.25649        1.50201        0.10793
H         -3.23704        2.89028       -1.21093
H         -1.85639        3.35066       -0.18726
H         -3.44449        2.99751        0.53104
H          1.15173        0.68052        1.80821
H          1.80022       -2.35807        1.49134
H          0.37663       -1.62568        2.37705
