22
astex_1n2j_12.log	Energy: -336737.1859665
O         -2.22595        1.37683       -0.45410
C         -1.85199        0.27493       -0.14694
O         -2.53260       -0.50851        0.70060
C         -0.55143       -0.35416       -0.66755
O         -0.60142       -1.77178       -0.47089
C          0.69351        0.20417        0.05732
C          0.83787        1.70313       -0.22900
C          0.59591       -0.04513        1.56720
C          1.91472       -0.53662       -0.50693
O          3.08009        0.00381        0.08757
H         -2.04077       -1.35032        0.75122
H         -0.47834       -0.11481       -1.73617
H         -1.04980       -2.16831       -1.22839
H          0.89797        1.89427       -1.30755
H         -0.00954        2.27031        0.16320
H          1.75891        2.07030        0.23062
H         -0.22790        0.52249        2.01469
H          0.44332       -1.10886        1.78335
H          1.52681        0.26676        2.04772
H          1.82102       -1.60962       -0.29407
H          1.93802       -0.40705       -1.60336
H          3.82790       -0.54595       -0.17130
