22
astex_1n2j_10.log	Energy: -336738.4886943
O         -2.26669        1.31127       -0.50738
C         -1.82727        0.23549       -0.18820
O         -2.44906       -0.56662        0.70605
C         -0.52717       -0.37985       -0.68631
O         -0.57868       -1.78974       -0.65053
C          0.70178        0.19831        0.06877
C          0.79479        1.71408       -0.13585
C          0.63380       -0.13550        1.56267
C          1.93768       -0.47160       -0.54679
O          3.09359        0.03544        0.09689
H         -3.25429       -0.09892        0.98259
H         -0.44379       -0.09801       -1.74224
H         -1.00341       -2.04653        0.17936
H          0.78946        1.96893       -1.20275
H         -0.04167        2.23941        0.33382
H          1.72910        2.08204        0.29639
H          0.52612       -1.21484        1.72407
H         -0.20690        0.37011        2.05151
H          1.55793        0.18239        2.05211
H          1.96292       -0.25311       -1.62808
H          1.85611       -1.55964       -0.42487
H          3.85349       -0.46022       -0.22783
