22
astex_1n2j_00.log	Energy: -336744.0639108
O         -1.66028        1.48274        0.60188
C         -1.57663        0.45170       -0.02048
O         -2.59298       -0.40978       -0.10696
C         -0.33493        0.00265       -0.82119
O         -0.46875       -1.38020       -1.13025
C          1.01973        0.34589       -0.15253
C          1.26236        1.85985       -0.18786
C          2.14373       -0.36203       -0.92225
C          1.01819       -0.11708        1.30622
O          0.66248       -1.50314        1.34118
H         -2.25464       -1.16106       -0.63679
H         -0.38225        0.52985       -1.78347
H         -0.14398       -1.84718       -0.33733
H          1.33771        2.20725       -1.22500
H          2.21036        2.10039        0.30805
H          0.45384        2.40631        0.30204
H          3.11615       -0.03801       -0.53360
H          2.08541       -1.44920       -0.83156
H          2.10308       -0.10962       -1.98779
H          0.29803        0.47675        1.88267
H          2.01914        0.02876        1.73811
H          0.43861       -1.74703        2.24634
