22
astex_1n2j_13.log	Energy: -336739.3438542
O         -2.22120       -1.24929       -0.56175
C         -1.59289       -0.35072       -0.05838
O         -2.01962        0.91441       -0.08126
C         -0.27282       -0.61464        0.68618
O         -0.18240        0.16225        1.86816
C          1.00583       -0.34484       -0.14843
C          0.79512       -0.78771       -1.60009
C          2.15583       -1.14504        0.47715
C          1.40450        1.13911       -0.07738
O          0.38768        2.04987       -0.48082
H         -1.27447        1.49787        0.17866
H         -0.30235       -1.68852        0.91552
H         -0.89082       -0.10891        2.46553
H          1.73863       -0.72549       -2.15455
H          0.43539       -1.82075       -1.65010
H          0.04959       -0.17291       -2.11929
H          1.98689       -2.22105        0.35842
H          2.24469       -0.92550        1.54630
H          3.11041       -0.90328       -0.00525
H          1.63530        1.40531        0.95540
H          2.30989        1.29165       -0.68282
H          0.26771        1.97675       -1.43674
