22
astex_1n2j_17.log	Energy: -336735.7879739
O         -2.24793       -0.34414        1.13267
C         -1.74935        0.17423        0.16325
O         -2.14397        1.38801       -0.24429
C         -0.65380       -0.53598       -0.63921
O         -0.70947       -1.90064       -0.32083
C          0.76712        0.04614       -0.39258
C          0.85074        1.52591       -0.78561
C          1.74888       -0.76242       -1.24789
C          1.11783       -0.11350        1.09029
O          2.41824        0.40854        1.29684
H         -1.64690        1.65137       -1.03265
H         -0.87823       -0.41571       -1.71226
H         -1.26728       -1.96286        0.47406
H          0.52632        1.68098       -1.82521
H          1.88775        1.86269       -0.71418
H          0.25994        2.16893       -0.12310
H          1.56162       -0.59550       -2.31596
H          2.77493       -0.45783       -1.02461
H          1.64477       -1.83207       -1.04562
H          1.06695       -1.17942        1.35325
H          0.38089        0.42412        1.70978
H          2.66578        0.23486        2.21195
