43
astex_1meh_20.log	Energy: -697119.5495225
C         -4.12628       -1.73470       -0.20773
O         -4.27917       -2.88686        0.08425
C         -2.99946       -0.80970        0.05169
C         -3.30323        0.42627       -0.49021
C         -4.66190        0.31836       -1.12617
O         -5.07692       -1.02621       -0.89985
C         -2.44328        1.51273       -0.42258
C         -2.77474        2.84383       -1.04348
C         -1.23047        1.27823        0.24068
C         -0.87678        0.03784        0.79529
C         -1.78147       -1.02864        0.69276
O         -1.52521       -2.26035        1.18567
C          0.48101       -0.16624        1.43793
C          1.43744       -0.91167        0.53523
C          2.52184       -0.41129       -0.06325
C          3.38916       -1.30777       -0.91969
C          4.78634       -1.56667       -0.32558
C          5.70658       -0.37098       -0.32922
O          6.28592        0.08249        0.62838
O          5.84479        0.15711       -1.56595
C          2.96605        1.02723        0.06057
O         -0.31622        2.30660        0.32828
C         -0.57168        3.20406        1.39952
H         -4.63808        0.50277       -2.20688
H         -5.39703        0.99500       -0.67545
H         -3.30734        2.71058       -1.99168
H         -3.41656        3.45197       -0.39309
H         -1.86268        3.41152       -1.24464
H         -0.67239       -2.25592        1.63887
H          0.36702       -0.71662        2.38556
H          0.89960        0.80145        1.71590
H          1.19274       -1.95949        0.34745
H          3.50873       -0.86994       -1.91874
H          2.89513       -2.27670       -1.05043
H          4.71166       -1.91592        0.70735
H          5.28054       -2.34862       -0.91520
H          6.45806        0.90419       -1.46782
H          2.13088        1.69579        0.28461
H          3.41574        1.36484       -0.88003
H          3.72875        1.14393        0.84107
H          0.21080        3.96461        1.36276
H         -1.55241        3.68450        1.29334
H         -0.53355        2.68449        2.36617
