43
astex_1meh_26.log	Energy: -697113.9169724
C         -4.12336       -1.79068       -0.22692
O         -4.25333       -2.94774        0.05708
C         -3.01700       -0.84442        0.04300
C         -3.34404        0.38880       -0.49162
C         -4.69772        0.25702       -1.13376
O         -5.08594       -1.09735       -0.91753
C         -2.50670        1.49223       -0.41399
C         -2.86157        2.81937       -1.03036
C         -1.29207        1.27858        0.25311
C         -0.91617        0.04202        0.80176
C         -1.79698       -1.04269        0.68664
O         -1.51561       -2.27316        1.17002
C          0.44242       -0.13671        1.44946
C          1.42291       -0.83775        0.53755
C          2.51724       -0.31084       -0.02016
C          3.39926       -1.17656       -0.89410
C          4.79280       -1.42315       -0.30225
C          5.78882       -0.30752       -0.58374
O          5.66402        0.52096       -1.44535
O          6.90064       -0.31906        0.18678
C          2.95844        1.12064        0.16799
O         -0.39745        2.32213        0.35120
C         -0.68002        3.21667        1.41767
H         -5.44839        0.91543       -0.68174
H         -4.67341        0.44857       -2.21318
H         -1.95951        3.40309       -1.23086
H         -3.39248        2.67986       -1.97857
H         -3.51310        3.41466       -0.37777
H         -0.66262       -2.25386        1.62232
H          0.33716       -0.70928        2.38520
H          0.83151        0.83651        1.74985
H          1.18344       -1.87723        0.30139
H          3.53180       -0.70652       -1.87595
H          2.91187       -2.14397       -1.05457
H          5.22541       -2.33402       -0.73862
H          4.72121       -1.60015        0.77947
H          6.85221       -1.04069        0.82873
H          2.12651        1.77154        0.44781
H          3.39704        1.50659       -0.75666
H          3.73622        1.20324        0.93956
H          0.09173        3.98845        1.38961
H         -1.66612        3.68294        1.29921
H         -0.64657        2.69861        2.38549
