34
astex_1of1_07.log	Energy: -550397.1220976
O          2.59506        2.51477        0.69018
C          3.08043        1.53423       -0.19410
C          2.95605        0.08953        0.34404
C          2.87598       -0.88972       -0.83985
O          3.41589       -2.13930       -0.42997
C          1.36974       -0.97566       -1.17816
C          0.65474       -0.69235        0.13469
N         -0.70979       -0.22492        0.07682
C         -0.94546        1.11313       -0.18506
O         -0.06428        1.94729       -0.33332
N         -2.27986        1.44479       -0.27256
C         -3.39291        0.60251       -0.16736
O         -4.51814        1.04671       -0.28221
C         -3.05378       -0.80002        0.08346
C         -1.75455       -1.12847        0.18642
C         -4.18312       -1.77636        0.21119
C          1.64428       -0.08936        1.08543
C          1.10794       -1.46964        1.33995
H          1.64074        2.56562        0.52040
H          2.55717        1.60636       -1.15930
H          4.13817        1.75331       -0.38057
H          3.81829       -0.16131        0.97118
H          3.44700       -0.50905       -1.70050
H          3.39959       -2.73081       -1.19295
H          1.11028       -1.94813       -1.61595
H          1.09926       -0.19772       -1.90192
H         -2.47160        2.42189       -0.45587
H         -1.43100       -2.14801        0.37530
H         -4.84993       -1.49070        1.03109
H         -4.78914       -1.78705       -0.70056
H         -3.81123       -2.78821        0.39723
H          1.33940        0.69985        1.76392
H          1.74620       -2.33220        1.17642
H          0.40008       -1.55562        2.16102
