43
astex_1meh_24.log	Energy: -697116.0601494
C          3.14395       -2.51818        0.12904
O          2.68371       -3.55378        0.51787
C          2.57075       -1.15275        0.09132
C          3.50788       -0.29204       -0.45181
C          4.72897       -1.10414       -0.78491
O          4.41149       -2.43692       -0.39414
C          3.27264        1.06197       -0.63807
C          4.29409        1.98141       -1.25329
C          2.01241        1.51535       -0.22248
C          1.02862        0.67644        0.32670
C          1.31243       -0.69165        0.47837
O          0.43209       -1.56644        1.00314
C         -0.30659        1.23662        0.77505
C         -1.48861        0.54573        0.13715
C         -2.58471        0.06428        0.74068
C         -3.68691       -0.56423       -0.08144
C         -4.98202        0.24807       -0.04292
C         -6.07215       -0.38263       -0.89367
O         -5.94802       -1.40805       -1.50544
O         -7.24266        0.29625       -0.92846
C         -2.83753        0.12393        2.22828
O          1.71145        2.85081       -0.38190
C          2.16612        3.66325        0.68965
H          5.61942       -0.77787       -0.23516
H          4.96118       -1.09574       -1.85669
H          4.82361        1.48506       -2.07441
H          5.05065        2.29819       -0.52393
H          3.81407        2.87810       -1.65284
H         -0.46020       -1.18433        0.96408
H         -0.33522        2.29603        0.49954
H         -0.37629        1.19422        1.86919
H         -1.42158        0.44875       -0.94786
H         -3.90201       -1.57586        0.28472
H         -3.37248       -0.67475       -1.12375
H         -5.36150        0.34186        0.98416
H         -4.79994        1.27061       -0.40260
H         -7.17949        1.09761       -0.39075
H         -3.29973       -0.80713        2.57666
H         -1.92687        0.28333        2.81115
H         -3.52917        0.93866        2.47781
H          1.90038        4.69202        0.43801
H          1.68065        3.37984        1.63330
H          3.25387        3.58804        0.81501
