43
astex_1meh_12.log	Energy: -697123.7346593
C          2.58924        2.56641        0.30286
O          2.14125        3.43240        1.02322
C          2.20903        1.16035        0.24759
C          2.95337        0.51703       -0.72362
C          3.87167        1.55754       -1.31489
O          3.56291        2.77844       -0.61679
C          2.76970       -0.82620       -1.00310
C          3.53547       -1.54794       -2.08024
C          1.78249       -1.47220       -0.22790
C          1.01357       -0.84258        0.76240
C          1.22676        0.52149        0.99335
O          0.50265        1.18641        1.91560
C         -0.07228       -1.57600        1.51818
C         -1.39064       -1.48393        0.79043
C         -2.47194       -0.78376        1.14502
C         -3.69516       -0.78731        0.25613
C         -3.97671        0.58357       -0.35963
C         -5.18893        0.56730       -1.27394
O         -5.87880       -0.39433       -1.47875
O         -5.47145        1.74749       -1.87693
C         -2.57934        0.06013        2.39043
O          1.51751       -2.79827       -0.48151
C          2.40775       -3.69447        0.16784
H          4.93245        1.33748       -1.15760
H          3.70143        1.72577       -2.38361
H          2.95850       -2.39530       -2.45943
H          3.75276       -0.87966       -2.92085
H          4.49594       -1.93203       -1.71355
H          0.81849        2.11218        1.92397
H         -0.14430       -1.15399        2.52376
H          0.20436       -2.63039        1.62019
H         -1.42277       -2.04404       -0.14549
H         -4.57967       -1.09733        0.82730
H         -3.57930       -1.51720       -0.55133
H         -3.10394        0.92491       -0.93405
H         -4.14822        1.33905        0.41986
H         -4.82431        2.41599       -1.61267
H         -1.78675       -0.14247        3.11288
H         -3.54480       -0.10768        2.88398
H         -2.51796        1.12851        2.14830
H          3.44357       -3.53888       -0.15979
H          2.08905       -4.70246       -0.10430
H          2.35859       -3.57612        1.25822
