34
astex_1of1_09.log	Energy: -550389.3747634
O         -3.09874        1.80610       -1.13380
C         -3.77541        0.56386       -1.09599
C         -2.85705       -0.46635       -0.46285
C         -2.55328       -0.18461        1.01483
O         -3.66210       -0.57937        1.80109
C         -1.25394       -0.96086        1.30187
C         -0.48505       -0.88421       -0.01781
N          0.83647       -0.30089       -0.01353
C          0.94068        1.05535        0.27241
O         -0.01523        1.76593        0.51006
N          2.23970        1.53103        0.26804
C          3.42524        0.81373        0.09448
O          4.50439        1.37410        0.13626
C          3.22460       -0.62099       -0.12025
C          1.96443       -1.08923       -0.15442
C          4.44457       -1.47585       -0.28380
C         -1.47857       -0.56429       -1.10718
C         -0.79283       -1.89934       -1.08148
H         -3.71302        2.47431       -1.45801
H         -4.69387        0.62105       -0.49214
H         -4.05505        0.23571       -2.11003
H         -3.37423       -1.43612       -0.51152
H         -2.35031        0.88889        1.11795
H         -3.59800       -0.13175        2.65248
H         -0.67804       -0.52036        2.12129
H         -1.49851       -1.99574        1.57320
H          2.33553        2.52087        0.45616
H          1.75186       -2.14321       -0.30549
H          5.08714       -1.40831        0.60017
H          5.04293       -1.13693       -1.13580
H          4.17492       -2.52469       -0.44054
H         -1.21326        0.14805       -1.88239
H         -0.03611       -2.07901       -1.84162
H         -1.36199       -2.78105       -0.79303
