34
astex_1of1_04.log	Energy: -550394.0979713
O          1.70611        2.40381       -0.41996
C          2.83234        2.06323        0.37714
C          2.86840        0.55158        0.55932
C          2.96138       -0.20696       -0.79347
O          3.71752       -1.40535       -0.68019
C          1.52320       -0.59577       -1.15960
C          0.76715       -0.65127        0.15769
N         -0.66173       -0.47078        0.12107
C         -1.46927       -1.59441       -0.00925
O         -1.04563       -2.73108       -0.05844
N         -2.82107       -1.30006       -0.07029
C         -3.43704       -0.04713       -0.08817
O         -4.64816        0.04969       -0.16591
C         -2.50217        1.07724       -0.01536
C         -1.18713        0.80977        0.07643
C         -3.07785        2.46047       -0.05579
C          1.59815        0.03337        1.21298
C          1.37111       -1.45285        1.26278
H          1.73497        3.35164       -0.59595
H          2.77508        2.55237        1.36197
H          3.76267        2.39527       -0.10938
H          3.75678        0.32117        1.16518
H          3.40144        0.43855       -1.56852
H          4.61977       -1.16531       -0.43414
H          1.50640       -1.54585       -1.70212
H          1.08182        0.18551       -1.78726
H         -3.43184       -2.10279       -0.15228
H         -0.43061        1.59075        0.11505
H         -3.63004        2.62478       -0.98711
H         -2.29080        3.21671        0.02212
H         -3.78969        2.60856        0.76295
H          1.11737        0.64715        1.97236
H          0.68666       -1.81466        2.02363
H          2.18127       -2.12808        1.00585
