43
astex_1meh_06.log	Energy: -697128.6898945
C         -4.32625       -0.84072       -0.69204
O         -4.79790       -1.95698       -0.67432
C         -3.04068       -0.40017       -0.16440
C         -2.88270        0.95218       -0.39924
C         -4.13426        1.41131       -1.10454
O         -4.95097        0.23343       -1.23658
C         -1.73189        1.62325       -0.01986
C         -1.50919        3.08638       -0.29659
C         -0.75740        0.82783        0.61747
C         -0.89209       -0.54704        0.86735
C         -2.06759       -1.18047        0.44978
O         -2.24515       -2.50299        0.63802
C          0.22693       -1.33959        1.50810
C          1.28095       -1.70859        0.49453
C          2.53255       -1.24850        0.41358
C          3.42898       -1.71119       -0.71471
C          3.83195       -0.58917       -1.68919
C          4.83671        0.39984       -1.15195
O          4.74459        1.60326       -1.19965
O          5.91688       -0.21174       -0.61530
C          3.14390       -0.25275        1.36778
O          0.42841        1.41768        0.98686
C          0.37452        2.09717        2.23140
H         -4.70202        2.15471       -0.53562
H         -3.94353        1.80687       -2.10788
H         -0.44066        3.30229       -0.37794
H         -1.98945        3.38435       -1.23515
H         -1.92222        3.72280        0.49639
H         -3.12540       -2.73561        0.28092
H          0.65935       -0.76734        2.33238
H         -0.20193       -2.25301        1.93420
H          0.94175       -2.41428       -0.26579
H          2.91246       -2.48740       -1.28966
H          4.34203       -2.16643       -0.31010
H          2.95741       -0.01933       -2.01353
H          4.28926       -1.04133       -2.57847
H          6.50457        0.50358       -0.32103
H          3.17417        0.74657        0.91578
H          4.17471       -0.53730        1.61100
H          2.58692       -0.16960        2.30409
H          0.10642        1.41003        3.04511
H         -0.35120        2.92028        2.20987
H          1.37390        2.50014        2.40817
