34
astex_1of1_12.log	Energy: -550388.7123751
O         -3.06844        1.84439       -1.09205
C         -3.77500        0.62042       -1.06057
C         -2.86208       -0.44293       -0.47364
C         -2.55346       -0.21418        1.02051
O         -3.62374       -0.52801        1.88373
C         -1.25103       -0.99419        1.27705
C         -0.48931       -0.87893       -0.04313
N          0.83243       -0.29860       -0.02660
C          0.93819        1.05317        0.28316
O         -0.01771        1.76092        0.52565
N          2.23877        1.52473        0.29455
C          3.42298        0.80701        0.11507
O          4.50377        1.36238        0.17360
C          3.21984       -0.62328       -0.12824
C          1.95896       -1.08757       -0.17724
C          4.43865       -1.47761       -0.30260
C         -1.48529       -0.52526       -1.12170
C         -0.80117       -1.86098       -1.13605
H         -3.69133        2.54996       -1.29925
H         -4.67163        0.68582       -0.42528
H         -4.09497        0.32288       -2.07230
H         -3.38463       -1.40908       -0.57443
H         -2.35170        0.85124        1.16014
H         -3.79987       -1.47491        1.79830
H         -1.47237       -2.04398        1.52181
H         -0.68271       -0.57261        2.10990
H          2.33628        2.51033        0.50325
H          1.74441       -2.13802       -0.34945
H          4.16756       -2.52286       -0.47972
H          5.04138       -1.12425       -1.14557
H          5.07749       -1.42769        0.58523
H         -1.21901        0.20969       -1.87491
H         -1.37033       -2.75160       -0.87475
H         -0.04555       -2.01932       -1.90183
