43
astex_1meh_04.log	Energy: -697129.3425733
C          2.45639        2.66551       -0.27419
O          1.87541        3.55799       -0.85258
C          2.13454        1.24362       -0.26274
C          3.04484        0.56976        0.52940
C          4.00784        1.60736        1.04976
O          3.55617        2.85715        0.49677
C          2.95620       -0.79722        0.72961
C          3.90813       -1.55616        1.61562
C          1.88411       -1.43193        0.06729
C          0.94503       -0.77207       -0.73932
C          1.07063        0.61331       -0.89660
O          0.19070        1.30653       -1.64535
C         -0.21548       -1.50977       -1.36962
C         -1.35713       -1.66732       -0.39519
C         -2.54022       -1.04634       -0.41306
C         -3.56218       -1.35603        0.66075
C         -4.01634       -0.12672        1.45812
C         -5.10100        0.66227        0.76399
O         -5.93004        0.21100        0.00930
O         -5.07786        1.96589        1.10804
C         -2.96167       -0.02707       -1.44022
O          1.70970       -2.78520        0.25142
C          2.52885       -3.58679       -0.58687
H          3.99734        1.69611        2.14142
H          5.03891        1.44395        0.71994
H          3.43348       -2.46169        2.00237
H          4.22011       -0.94449        2.46955
H          4.81844       -1.85483        1.08023
H          0.46253        2.24587       -1.62529
H         -0.52822       -0.97272       -2.26788
H          0.11657       -2.50527       -1.68436
H         -1.15187       -2.36670        0.41676
H         -4.45479       -1.80475        0.20575
H         -3.14474       -2.09451        1.35337
H         -4.44727       -0.44504        2.41638
H         -3.17980        0.53750        1.69698
H         -5.82692        2.37702        0.64526
H         -3.92890       -0.29716       -1.87945
H         -2.22923        0.09855       -2.23935
H         -3.08828        0.95946       -0.97422
H          3.59481       -3.41139       -0.39303
H          2.32363       -3.38681       -1.64666
H          2.28624       -4.62652       -0.35892
