34
astex_1of1_11.log	Energy: -550390.4758869
O          3.84237        1.40665        1.87192
C          3.52009        1.16769        0.51639
C          2.81959       -0.16745        0.29522
C          2.45722       -0.39299       -1.19389
O          3.45535       -1.07070       -1.93283
C          1.16509       -1.21825       -1.19010
C          0.46669       -0.83748        0.11358
N         -0.86124       -0.28118        0.04755
C         -0.98150        1.01096       -0.44672
O         -0.03166        1.68407       -0.80280
N         -2.28244        1.47067       -0.50160
C         -3.45738        0.78584       -0.17714
O         -4.54148        1.32483       -0.29083
C         -3.23937       -0.58761        0.28414
C         -1.97508       -1.03835        0.36328
C         -4.44776       -1.39975        0.63882
C          1.49257       -0.23803        1.03513
C          0.88642       -1.57578        1.35130
H          4.43575        0.70136        2.15956
H          2.84546        1.97849        0.21991
H          4.41774        1.22886       -0.12328
H          3.48942       -0.98582        0.60196
H          2.23479        0.58552       -1.64410
H          4.13611       -0.43175       -2.17418
H          1.41951       -2.28480       -1.22083
H          0.54112       -0.99855       -2.06056
H         -2.39352        2.41506       -0.84853
H         -1.74375       -2.04636        0.69511
H         -5.13142       -1.46794       -0.21346
H         -5.00528       -0.92742        1.45428
H         -4.16814       -2.41199        0.94602
H          1.21971        0.59415        1.67793
H          1.48004       -2.47803        1.21744
H          0.19192       -1.60891        2.18746
