34
astex_1of1_05.log	Energy: -550397.7075489
O          2.59863        2.51633        0.67644
C          3.07038        1.53329       -0.21170
C          2.95421        0.09061        0.33238
C          2.86534       -0.89647       -0.85275
O          3.31476       -2.20647       -0.52910
C          1.36500       -0.98614       -1.17792
C          0.65569       -0.69247        0.13700
N         -0.70790       -0.22262        0.08161
C         -0.94457        1.11655       -0.17155
O         -0.06457        1.95382       -0.31128
N         -2.27901        1.44725       -0.25915
C         -3.39145        0.60287       -0.16253
O         -4.51680        1.04722       -0.27540
C         -3.05115       -0.80120        0.07736
C         -1.75181       -1.12890        0.18054
C         -4.17946       -1.78016        0.19331
C          1.64919       -0.09011        1.08390
C          1.10959       -1.46955        1.34145
H          1.64209        2.56822        0.51864
H          4.12494        1.75326       -0.41643
H          2.53238        1.59936       -1.16885
H          3.82118       -0.13829        0.96727
H          3.43097       -0.52036       -1.71936
H          4.22697       -2.13351       -0.22045
H          1.12565       -1.96761       -1.60058
H          1.08871       -0.21747       -1.90831
H         -2.47158        2.42531       -0.43621
H         -1.42686       -2.14968        0.36002
H         -4.85042       -1.50095        1.01204
H         -4.78114       -1.78567       -0.72135
H         -3.80672       -2.79262        0.37396
H          1.34842        0.69955        1.76378
H          1.73686       -2.33860        1.17065
H          0.40492       -1.55044        2.16581
