22
astex_1n2j_02.log	Energy: -336740.4463319
O         -2.10180        1.31052        0.28667
C         -1.63976        0.24627       -0.04031
O         -2.24930       -0.92604        0.24141
C         -0.35421        0.05044       -0.83800
O         -0.18134       -1.30441       -1.22218
C          0.91066        0.50447       -0.06333
C          2.13089        0.25227       -0.95605
C          0.82436        1.99779        0.27018
C          1.04691       -0.29149        1.25003
O          1.34802       -1.65515        1.07850
H         -3.06014       -0.69973        0.72726
H         -0.45765        0.69054       -1.72871
H         -1.04994       -1.68767       -1.40118
H          2.04529        0.80672       -1.89854
H          3.03742        0.59297       -0.44343
H          2.25015       -0.80832       -1.18335
H          1.77523        2.32787        0.70283
H          0.02388        2.22172        0.97998
H          0.64286        2.59345       -0.63181
H          0.12912       -0.15532        1.85184
H          1.87029        0.13936        1.83229
H          0.75566       -1.97942        0.38255
