43
astex_1meh_02.log	Energy: -697129.4472858
C         -3.84999       -1.82566        0.09645
O         -4.06104       -2.79363       -0.60104
C         -2.83332       -0.79527       -0.08043
C         -2.92681        0.12727        0.94369
C         -4.06804       -0.32324        1.82118
O         -4.56219       -1.53020        1.21278
C         -2.06013        1.20427        1.02888
C         -2.11559        2.20877        2.14926
C         -1.09609        1.28154        0.00254
C         -0.98132        0.36075       -1.05042
C         -1.87179       -0.71833       -1.08102
O         -1.79136       -1.64855       -2.05234
C          0.11064        0.47781       -2.09187
C          1.36686       -0.22776       -1.64511
C          2.52033        0.33144       -1.27002
C          3.66882       -0.53592       -0.80815
C          4.01611       -0.30545        0.66277
C          5.16585       -1.16501        1.12292
O          5.79529       -1.93609        0.43929
O          5.43622       -0.97762        2.43246
C          2.77889        1.81857       -1.23790
O         -0.17648        2.30495        0.04861
C         -0.63700        3.51723       -0.52799
H         -3.75757       -0.56047        2.84442
H         -4.89083        0.39793        1.86177
H         -1.14139        2.68493        2.28649
H         -2.39523        1.72786        3.09324
H         -2.85289        2.99829        1.95546
H         -2.49918       -2.30422       -1.89291
H          0.30872        1.53118       -2.30182
H         -0.25042        0.01848       -3.01870
H          1.28379       -1.31501       -1.60828
H          3.43165       -1.59440       -0.95723
H          4.56191       -0.33154       -1.41340
H          3.15313       -0.51518        1.30664
H          4.28727        0.73965        0.85805
H          6.18206       -1.56574        2.63599
H          2.61403        2.22429       -0.23215
H          2.12728        2.37413       -1.91725
H          3.81712        2.03444       -1.51814
H         -0.90572        3.37574       -1.58317
H          0.18708        4.23018       -0.45502
H         -1.50888        3.91244        0.00929
