22
astex_1n2j_03.log	Energy: -336743.6986513
O         -2.40868        0.94578       -0.42084
C         -1.79547       -0.06504       -0.18337
O         -2.30450       -1.06373        0.54009
C         -0.35429       -0.30810       -0.65707
O         -0.09634       -1.69068       -0.47336
C          0.65529        0.60491        0.09300
C          0.55930        0.38461        1.60705
C          0.39395        2.07643       -0.25037
C          2.07619        0.28850       -0.39248
O          2.44586       -1.03707       -0.00692
H         -1.63056       -1.77382        0.52788
H         -0.32726       -0.05337       -1.72732
H          0.86145       -1.80489       -0.32719
H          0.71572       -0.66501        1.87144
H          1.31994        0.97826        2.12670
H         -0.42148        0.69498        1.98387
H         -0.61646        2.37368        0.03541
H          0.49867        2.25989       -1.32676
H          1.11199        2.71557        0.27641
H          2.12368        0.39671       -1.48698
H          2.77358        1.01256        0.05266
H          3.29011       -1.25689       -0.41844
