34
astex_1of1_06.log	Energy: -550393.6815360
O          4.75974       -0.98520       -0.35020
C          3.55788       -0.80368       -1.09659
C          2.73317        0.34206       -0.52763
C          2.42427        0.11398        0.96913
O          3.47282        0.49480        1.82721
C          1.15277        0.92182        1.24288
C          0.38430        0.84724       -0.07813
N         -0.93515        0.26633       -0.08157
C         -1.03399       -1.11547        0.02464
O         -0.07134       -1.85772        0.07470
N         -2.33417       -1.58139        0.06291
C         -3.52075       -0.84281        0.06491
O         -4.59983       -1.40074        0.11898
C         -3.32039        0.60741        0.00136
C         -2.06065        1.07213       -0.06130
C         -4.54061        1.47718        0.01415
C          1.36341        0.50675       -1.17132
C          0.71291        1.86032       -1.13754
H          5.35259       -0.25738       -0.57849
H          2.99972       -1.74123       -1.00076
H          3.78046       -0.65121       -2.16287
H          3.31335        1.27464       -0.61047
H          2.17962       -0.95191        1.09546
H          4.20584       -0.09678        1.59857
H          0.57147        0.50658        2.07064
H          1.42018        1.95366        1.50248
H         -2.43028       -2.58671        0.13105
H         -1.84228        2.13512       -0.10923
H         -4.27292        2.53590       -0.05325
H         -5.11773        1.31955        0.93109
H         -5.20141        1.22780       -0.82230
H          1.05820       -0.17985       -1.95688
H         -0.04162        2.06204       -1.89427
H          1.30503        2.72440       -0.84298
