22
astex_1n2j_19.log	Energy: -336734.2897009
O          2.45898       -0.17942        0.82125
C          1.67672       -0.51175       -0.03331
O          1.64861       -1.77859       -0.48335
C          0.67435        0.48019       -0.62772
O          1.19623        1.77002       -0.46033
C         -0.74359        0.35867        0.00486
C         -0.68670        0.69555        1.49754
C         -1.64948        1.35692       -0.72493
C         -1.29420       -1.06021       -0.18413
O         -2.64908       -1.07480        0.21364
H          1.00841       -1.85974       -1.20533
H          0.58531        0.29236       -1.70989
H          1.81953        1.70588        0.28322
H         -0.00032        0.03439        2.04020
H         -1.68235        0.58865        1.93683
H         -0.35230        1.72710        1.64326
H         -1.22633        2.36271       -0.65656
H         -2.64864        1.35549       -0.28267
H         -1.74974        1.09661       -1.78658
H         -0.70840       -1.77507        0.41344
H         -1.20384       -1.34991       -1.25054
H         -2.94189       -1.99237        0.25116
