43
astex_1meh_29.log	Energy: -697112.4615019
C          3.08764       -2.40344       -0.15916
O          2.71208       -3.51597        0.07965
C          2.47827       -1.08767        0.14360
C          3.29890       -0.09178       -0.35534
C          4.48509       -0.76096       -0.99338
O          4.26326       -2.15857       -0.82434
C          3.00118        1.25822       -0.24229
C          3.91036        2.33258       -0.77717
C          1.80330        1.55573        0.42383
C          0.94685        0.57713        0.95551
C          1.29386       -0.77577        0.80930
O          0.53368       -1.78143        1.28802
C         -0.27506        0.97605        1.75495
C         -1.61570        0.35890        1.40292
C         -2.08406       -0.12072        0.24204
C         -3.49630       -0.66753        0.18218
C         -4.47300        0.34359       -0.44575
C         -5.85825       -0.23471       -0.67976
O         -6.38466       -0.31556       -1.75554
O         -6.49800       -0.68763        0.42547
C         -1.33332       -0.17830       -1.06654
O          1.46759        2.88042        0.60396
C          0.75650        3.43952       -0.48963
H          4.57023       -0.54481       -2.06453
H          5.43189       -0.49308       -0.50945
H          3.76868        2.48745       -1.85448
H          3.72202        3.28318       -0.27224
H          4.96258        2.06878       -0.62301
H         -0.34248       -1.43481        1.52132
H         -0.36286        2.06760        1.73676
H         -0.07886        0.72924        2.80833
H         -2.30308        0.33043        2.25125
H         -3.82663       -0.93765        1.19344
H         -3.50743       -1.59220       -0.40998
H         -4.11114        0.68192       -1.41941
H         -4.55032        1.22604        0.20340
H         -5.95886       -0.53246        1.21287
H         -2.02068       -0.04349       -1.90887
H         -0.54775        0.57491       -1.14332
H         -0.86360       -1.16267       -1.19087
H          0.60352        4.49547       -0.25804
H         -0.21969        2.95101       -0.61843
H          1.32508        3.35003       -1.42433
