43
astex_1meh_16.log	Energy: -697121.4060971
C         -3.06133       -2.56647        0.08273
O         -2.56994       -3.59569        0.45046
C         -2.52906       -1.18451        0.07094
C         -3.49063       -0.34215       -0.45824
C         -4.68833       -1.18325       -0.80429
O         -4.33107       -2.51327       -0.43868
C         -3.29350        1.02063       -0.62290
C         -4.34012        1.92124       -1.22347
C         -2.04572        1.50248       -0.20135
C         -1.03839        0.68336        0.33506
C         -1.28445       -0.69416        0.46644
O         -0.38053       -1.55276        0.97764
C          0.28252        1.27368        0.78770
C          1.48032        0.61407        0.14625
C          2.58880        0.15749        0.74621
C          3.70269       -0.44583       -0.07963
C          4.98989        0.39302       -0.02149
C          6.09109       -0.16829       -0.88631
O          6.71015        0.43903       -1.72501
O          6.33043       -1.46908       -0.61326
C          2.84841        0.22320        2.23176
O         -1.78167        2.84732       -0.34327
C         -2.25110        3.63288        0.74193
H         -5.58664       -0.89340       -0.24694
H         -4.92326       -1.16211       -1.87528
H         -4.86211        1.42063       -2.04681
H         -5.10003        2.21261       -0.48705
H         -3.88382        2.83320       -1.61617
H          0.49921       -1.14095        0.95502
H          0.28607        2.33489        0.51786
H          0.35307        1.22719        1.88163
H          1.41374        0.52024       -0.93908
H          3.37974       -0.54048       -1.12275
H          3.92744       -1.45748        0.28040
H          4.80567        1.41774       -0.35408
H          5.36736        0.43223        1.00805
H          7.04596       -1.74113       -1.21156
H          3.52830        1.04956        2.47392
H          3.32805       -0.69922        2.57961
H          1.93802        0.36951        2.81838
H         -1.75402        3.34838        1.67913
H         -3.33605        3.52862        0.87093
H         -2.01208        4.67129        0.50371
