43
astex_1meh_05.log	Energy: -697129.5947694
C         -2.85744       -2.61616       -0.11006
O         -2.44538       -3.60417       -0.67789
C         -2.34004       -1.25505       -0.18658
C         -3.09643       -0.42587        0.62022
C         -4.15737       -1.29479        1.24839
O         -3.92076       -2.61767        0.73216
C         -2.80946        0.92266        0.73998
C         -3.60117        1.84793        1.62568
C         -1.70314        1.37306       -0.01279
C         -0.91124        0.55131       -0.82887
C         -1.24492       -0.80623       -0.91198
O         -0.51713       -1.64144       -1.68008
C          0.29866        1.07140       -1.57407
C          1.59372        0.61006       -0.94379
C          2.42246        1.34692       -0.19913
C          3.71459        0.80523        0.37117
C          4.06462       -0.62844        0.00283
C          5.38041       -1.06214        0.59723
O          6.11827       -0.38275        1.27029
O          5.66616       -2.34417        0.28735
C          2.17920        2.79596        0.14933
O         -1.35781        2.70319        0.08739
C         -2.07956        3.54697       -0.79809
H         -5.17599       -1.00181        0.97415
H         -4.08552       -1.33925        2.34042
H         -4.48963        2.24234        1.11617
H         -3.94743        1.32729        2.52536
H         -2.98964        2.69792        1.93867
H         -0.91238       -2.53274       -1.60350
H          0.25971        0.68967       -2.60174
H          0.25597        2.16031       -1.62908
H          1.82733       -0.43592       -1.13336
H          3.68438        0.89453        1.46554
H          4.53932        1.46290        0.06389
H          4.13080       -0.76119       -1.08403
H          3.29744       -1.33402        0.34364
H          6.52192       -2.53456        0.70553
H          2.46882        2.98696        1.18962
H          1.13135        3.08646        0.04211
H          2.79501        3.45644       -0.47546
H         -3.15898        3.49794       -0.60546
H         -1.72456        4.56369       -0.61857
H         -1.89208        3.27223       -1.84439
