43
astex_1meh_31.log	Energy: -697112.4492780
C          3.81578       -1.89885       -0.00945
O          4.05204       -2.86231       -0.68149
C          2.79443       -0.83724       -0.16301
C          2.92260        0.05926        0.88197
C          4.05965       -0.41433        1.74564
O          4.53312       -1.60550        1.12304
C          2.09502        1.16297        1.03707
C          2.21806        2.10588        2.20451
C          1.11578        1.32021        0.04751
C          0.95622        0.43874       -1.03455
C          1.80235       -0.67474       -1.12964
O          1.70250       -1.60077       -2.10796
C         -0.16783        0.65670       -2.02885
C         -1.41453       -0.08901       -1.62031
C         -2.55733        0.44183       -1.17765
C         -3.68912       -0.45786       -0.73721
C         -4.00082       -0.30893        0.76396
C         -5.16922       -1.17890        1.19077
O         -6.23891       -0.75776        1.53785
O         -4.95291       -2.51570        1.13009
C         -2.81671        1.92152       -1.03481
O          0.22586        2.36674        0.14819
C          0.73400        3.60207       -0.33433
H          3.74452       -0.65198        2.76866
H          4.88201        0.30848        1.79566
H          2.99217        2.86601        2.03853
H          1.27126        2.62156        2.38439
H          2.48725        1.56425        3.11813
H          0.99166       -1.35623       -2.71420
H         -0.37067        1.72521       -2.11268
H          0.14793        0.33981       -3.03483
H         -1.33400       -1.17795       -1.65201
H         -4.59798       -0.21509       -1.30487
H         -3.44198       -1.50138       -0.97079
H         -4.27352        0.72165        1.00154
H         -3.10842       -0.56517        1.35085
H         -4.03999       -2.69454        0.86603
H         -2.59703        2.25955       -0.01522
H         -2.20438        2.52296       -1.71098
H         -3.86863        2.14962       -1.24223
H          1.00404        3.52929       -1.39645
H         -0.06395        4.33729       -0.21048
H          1.61617        3.92307        0.23346
