43
astex_1meh_07.log	Energy: -697128.2100568
C          3.99973       -0.36530       -0.84911
O          4.53844       -1.29856       -1.40334
C          2.68512       -0.33688       -0.21647
C          2.44054        0.92764        0.28526
C          3.65969        1.75675       -0.03726
O          4.55658        0.86314       -0.72269
C          1.24545        1.23263        0.91531
C          0.88011        2.61112        1.39793
C          0.33394        0.16526        1.00254
C          0.53325       -1.11414        0.46578
C          1.75744       -1.37030       -0.16532
O          2.01725       -2.57301       -0.71168
C         -0.57653       -2.14483        0.46011
C         -1.69732       -1.68992       -0.44156
C         -2.95323       -1.38413       -0.10303
C         -3.90854       -0.82834       -1.13715
C         -4.16865        0.68713       -0.98901
C         -3.00079        1.54665       -1.45018
O         -2.99993        2.14024       -2.49827
O         -1.93664        1.62706       -0.62801
C         -3.53043       -1.52436        1.28283
O         -0.88250        0.41646        1.61580
C         -0.87966        0.18823        3.01890
H          4.17394        2.13577        0.85145
H          3.44087        2.59526       -0.70617
H          0.74842        2.65356        2.48513
H         -0.05847        2.93369        0.93519
H          1.65610        3.33600        1.13320
H          2.91335       -2.53238       -1.10282
H         -0.16276       -3.08851        0.09001
H         -0.93386       -2.33197        1.47687
H         -1.40263       -1.55038       -1.48305
H         -3.53173       -1.02268       -2.14787
H         -4.87615       -1.34046       -1.05431
H         -4.42121        0.93004        0.05125
H         -5.01779        0.97486       -1.61300
H         -2.01221        1.04372        0.14808
H         -4.37356       -2.22648        1.27236
H         -3.92444       -0.56792        1.65147
H         -2.80549       -1.88589        2.01527
H         -0.65349       -0.86137        3.24473
H         -0.14401        0.82764        3.52124
H         -1.88118        0.43161        3.37911
