34
astex_1of1_13.log	Energy: -550390.1375282
O          2.39085        2.40020        0.33482
C          3.39854        1.47306        0.71360
C          2.85949        0.07094        0.47944
C          2.53987       -0.20071       -1.01270
O          3.63402       -0.70719       -1.75016
C          1.38870       -1.21209       -1.01502
C          0.61939       -0.91331        0.26980
N         -0.76293       -0.52072        0.17639
C         -1.72251       -1.52346        0.11192
O         -1.46052       -2.70735        0.17404
N         -3.01448       -1.04724       -0.02596
C         -3.44041        0.27528       -0.16955
O         -4.62146        0.53682       -0.30291
C         -2.35462        1.25839       -0.14636
C         -1.09570        0.81432        0.01732
C         -2.72219        2.70224       -0.30750
C          1.54172       -0.16880        1.20493
C          1.11099       -1.57423        1.51543
H          2.71100        3.29094        0.51805
H          4.31403        1.62160        0.11689
H          3.66888        1.60034        1.77238
H          3.62612       -0.64934        0.79586
H          2.18214        0.74304       -1.45193
H          4.20930        0.03064       -1.98403
H          0.75369       -1.11111       -1.89950
H          1.79465       -2.22992       -1.01481
H         -3.73383       -1.75806       -0.06482
H         -0.24243        1.48908        0.04578
H         -3.23227        2.86797       -1.26214
H         -1.83472        3.34109       -0.26888
H         -3.41588        3.01576        0.47951
H          1.14488        0.62869        1.82794
H          1.82011       -2.39111        1.40238
H          0.39340       -1.70342        2.32027
