43
astex_1meh_17.log	Energy: -697122.7821940
C         -3.94580       -2.00753       -0.30035
O         -3.84363       -3.18948       -0.05494
C         -2.99836       -0.94213        0.00602
C         -3.50067        0.26626       -0.43660
C         -4.83707       -0.03361       -1.06851
O         -5.01328       -1.45530       -0.92944
C         -2.80474        1.45007       -0.25741
C         -3.34263        2.78374       -0.70410
C         -1.56147        1.32440        0.39825
C         -1.04238        0.11283        0.88265
C         -1.78356       -1.05487        0.67010
O         -1.32185       -2.24516        1.10048
C          0.27345        0.05039        1.62441
C          1.42869       -0.28469        0.71495
C          2.53555        0.43472        0.50475
C          3.60544       -0.08028       -0.43200
C          4.93434       -0.37264        0.28832
C          5.98674       -0.96477       -0.63211
O          6.49894       -2.03960       -0.47905
O          6.33438       -0.19327       -1.69240
C          2.82728        1.76519        1.15445
O         -0.82294        2.46347        0.62213
C         -0.06625        2.88100       -0.50755
H         -5.67302        0.46333       -0.56464
H         -4.87457        0.20941       -2.13537
H         -3.13957        2.97412       -1.76569
H         -2.89298        3.59388       -0.12441
H         -4.42879        2.83195       -0.56782
H         -1.98763       -2.92265        0.86717
H          0.43427        0.99550        2.14575
H          0.19576       -0.73615        2.38489
H          1.32488       -1.23535        0.18935
H          3.76724        0.66451       -1.22792
H          3.25902       -0.99513       -0.92578
H          5.33654        0.54647        0.73590
H          4.77278       -1.09237        1.09394
H          5.85042        0.64339       -1.66694
H          3.24003        2.46938        0.41947
H          3.57137        1.66766        1.95522
H          1.93502        2.22431        1.58689
H          0.48359        3.77296       -0.19919
H         -0.71772        3.13284       -1.35413
H          0.63906        2.09813       -0.81266
