34
astex_1of1_02.log	Energy: -550397.1221164
O          2.59535        2.51476        0.68978
C          3.08049        1.53412       -0.19457
C          2.95619        0.08943        0.34383
C          2.87588       -0.88995       -0.83987
O          3.41553       -2.13958       -0.42981
C          1.36963       -0.97553       -1.17809
C          0.65471       -0.69215        0.13486
N         -0.70976       -0.22471        0.07717
C         -0.94552        1.11329       -0.18480
O         -0.06442        1.94753       -0.33303
N         -2.27994        1.44485       -0.27237
C         -3.39290        0.60243       -0.16742
O         -4.51817        1.04658       -0.28203
C         -3.05368       -0.80012        0.08343
C         -1.75446       -1.12845        0.18654
C         -4.18310       -1.77639        0.21076
C          1.64455       -0.08928        1.08541
C          1.10815       -1.46956        1.33997
H          1.64102        2.56568        0.52023
H          4.13814        1.75325       -0.38141
H          2.55683        1.60611       -1.15952
H          3.81852       -0.16131        0.97087
H          3.44693       -0.50959       -1.70066
H          3.39770       -2.73167       -1.19231
H          1.10981       -1.94785       -1.61602
H          1.09936       -0.19741       -1.90174
H         -2.47183        2.42192       -0.45564
H         -1.43070       -2.14792        0.37545
H         -4.78768       -1.78845       -0.70195
H         -4.85124       -1.48950        1.02914
H         -3.81149       -2.78796        0.39885
H          1.33993        0.69990        1.76402
H          0.40040       -1.55524        2.16119
H          1.74628       -2.33219        1.17636
