43
astex_1meh_19.log	Energy: -697120.0101396
C         -3.84199       -1.90775        0.03385
O         -4.09063       -2.87776       -0.62421
C         -2.81573       -0.85433       -0.14040
C         -2.93272        0.05707        0.89301
C         -4.06500       -0.39974        1.77173
O         -4.55007       -1.59569        1.16782
C         -2.09947        1.15892        1.02691
C         -2.20992        2.11881        2.18172
C         -1.12709        1.29880        0.02793
C         -0.97785        0.40195       -1.04236
C         -1.82816       -0.71032       -1.11478
O         -1.73968       -1.64930       -2.08129
C          0.13445        0.60460       -2.05306
C          1.39019       -0.13072       -1.65243
C          2.53790        0.40975       -1.23461
C          3.68377       -0.47811       -0.80797
C          4.01416       -0.32541        0.67696
C          5.16511       -1.20353        1.09856
O          5.80355       -1.93072        0.37638
O          5.42224       -1.08831        2.41797
C          2.78749        1.89363       -1.11231
O         -0.23598        2.34674        0.10643
C         -0.74649        3.57230       -0.39616
H         -4.88324        0.32794        1.82022
H         -3.74201       -0.62656        2.79482
H         -2.98506        2.87737        2.01291
H         -2.46967        1.59075        3.10601
H         -1.26062        2.63594        2.34362
H         -1.00845       -1.43515       -2.67468
H         -0.19665        0.27053       -3.04858
H          0.33265        1.67220       -2.15827
H          1.31693       -1.22029       -1.66846
H          4.58169       -0.23777       -1.39218
H          3.45294       -1.52815       -1.01551
H          3.14656       -0.57495        1.29998
H          4.27790        0.70884        0.93104
H          6.16894       -1.68326        2.59737
H          2.15803        2.48562       -1.78146
H          3.83363        2.12694       -1.34337
H          2.58525        2.24058       -0.09181
H         -1.02416        3.47961       -1.45480
H         -1.62465        3.90520        0.17135
H          0.05273        4.30939       -0.29241
