22
astex_1n2j_11.log	Energy: -336738.8094653
O         -2.23466        1.34334       -0.47888
C         -1.82355        0.24738       -0.18908
O         -2.47066       -0.56511        0.67549
C         -0.52957       -0.37899       -0.68902
O         -0.58800       -1.78737       -0.65197
C          0.70130        0.18846        0.07015
C          0.58949       -0.06808        1.57565
C          0.84770        1.68908       -0.20260
C          1.93572       -0.55497       -0.48088
O          3.14913       -0.11600        0.09848
H         -3.26661       -0.08741        0.96175
H         -0.44156       -0.09869       -1.74535
H         -1.02711       -2.04379        0.17040
H          0.38974       -1.12575        1.78462
H         -0.20736        0.52945        2.03391
H          1.53578        0.18892        2.06014
H          1.71575        2.08420        0.33704
H          0.98494        1.88732       -1.27376
H         -0.03003        2.25225        0.12488
H          1.96256       -0.45289       -1.57859
H          1.85328       -1.61997       -0.25394
H          3.35768        0.75021       -0.27139
