43
astex_1meh_25.log	Energy: -697115.2650887
C          3.43735       -2.27639        0.19462
O          3.18588       -3.44639        0.13608
C          2.60015       -1.08741       -0.08633
C          3.35573        0.05024        0.13240
C          4.72621       -0.39280        0.56443
O          4.67554       -1.81656        0.57207
C          2.85827        1.33402       -0.03959
C          3.69640        2.56231        0.19600
C          1.52290        1.40843       -0.45737
C          0.72550        0.27962       -0.70993
C          1.27368       -0.99540       -0.50871
O          0.58352       -2.13768       -0.70830
C         -0.69822        0.44016       -1.19965
C         -1.72041        0.21116       -0.11242
C         -2.73737        1.00509        0.23713
C         -3.69286        0.56672        1.32861
C         -5.00012       -0.00796        0.77440
C         -4.81426       -1.39131        0.16750
O         -3.85501       -2.09301        0.34580
O         -5.84412       -1.83407       -0.58872
C         -3.05221        2.33944       -0.39033
O          0.96625        2.65098       -0.66645
C          0.39698        3.21307        0.50840
H          5.51206       -0.07070       -0.12929
H          4.98724       -0.04304        1.57004
H          3.79719        2.78712        1.26557
H          4.70801        2.42950       -0.20437
H          3.25020        3.43157       -0.29295
H         -0.32650       -1.93925       -0.96549
H         -0.79895        1.43223       -1.64227
H         -0.88044       -0.27199       -2.02057
H         -1.62122       -0.72799        0.43403
H         -3.22487       -0.19673        1.95674
H         -3.93592        1.42127        1.97333
H         -5.74542       -0.10385        1.57604
H         -5.43790        0.66463        0.02417
H         -6.53700       -1.16114       -0.63587
H         -2.34736        2.62415       -1.17477
H         -3.04469        3.12974        0.37178
H         -4.05614        2.34355       -0.83484
H          1.16288        3.38424        1.27653
H         -0.04183        4.16962        0.21551
H         -0.38214        2.55704        0.91786
