43
astex_1meh_08.log	Energy: -697125.1494547
C         -3.92045       -1.46533        0.29728
O         -4.03579       -2.64567        0.04827
C         -2.79355       -0.59143       -0.00812
C         -3.05646        0.68263        0.45640
C         -4.42615        0.63199        1.08623
O         -4.86508       -0.73054        0.93385
C         -2.13580        1.70891        0.31822
C         -2.37535        3.09625        0.85189
C         -0.93545        1.35123       -0.32853
C         -0.64091        0.06280       -0.80211
C         -1.59875       -0.94083       -0.62570
O         -1.37048       -2.20229       -1.04467
C          0.69956       -0.25112       -1.42965
C          1.78585       -0.35753       -0.38534
C          2.38220       -1.47701        0.04551
C          3.45368       -1.48019        1.12358
C          4.09756       -0.14873        1.52136
C          5.10306        0.43563        0.53418
O          6.08833        1.02901        0.88808
O          4.84077        0.27099       -0.77731
C          2.04568       -2.86014       -0.45629
O          0.04763        2.30349       -0.47157
C         -0.15054        3.17670       -1.57591
H         -4.41669        0.86778        2.15571
H         -5.15439        1.28035        0.58860
H         -2.95179        3.71270        0.15058
H         -2.93809        3.06127        1.79135
H         -1.42637        3.60310        1.04486
H         -2.16279       -2.73385       -0.82684
H          0.61304       -1.17202       -2.01000
H          0.96906        0.54708       -2.13046
H          2.05419        0.60050        0.05990
H          4.24307       -2.18228        0.81903
H          3.00730       -1.92835        2.02199
H          3.33276        0.61295        1.71950
H          4.64911       -0.27119        2.45645
H          3.98373       -0.17430       -0.89607
H          1.07256       -2.91016       -0.94918
H          2.81378       -3.21965       -1.15290
H          2.02764       -3.56547        0.38310
H         -0.17222        2.61795       -2.52050
H          0.69337        3.86871       -1.58033
H         -1.08545        3.74198       -1.47589
