43
astex_1meh_13.log	Energy: -697123.8451323
C         -3.60383       -2.11472       -0.31567
O         -3.41385       -3.25449        0.05008
C         -2.79800       -0.93422       -0.02751
C         -3.35761        0.16910       -0.64264
C         -4.59189       -0.32136       -1.35733
O         -4.64883       -1.73509       -1.09209
C         -2.77607        1.42244       -0.54819
C         -3.34098        2.63716       -1.23528
C         -1.59089        1.47620        0.21429
C         -0.99776        0.37047        0.84281
C         -1.62001       -0.87526        0.70696
O         -1.09607       -1.97999        1.27633
C          0.31400        0.49715        1.58605
C          1.48754        0.51897        0.63677
C          2.39568       -0.44325        0.45365
C          3.51188       -0.24840       -0.54647
C          4.89527       -0.27172        0.10373
C          6.01008       -0.05651       -0.90482
O          5.84517        0.10533       -2.08327
O          7.26266       -0.05540       -0.38704
C          2.39804       -1.76189        1.19054
O         -0.93375        2.68120        0.32172
C         -1.46369        3.53518        1.32496
H         -5.51609        0.13065       -0.98311
H         -4.54465       -0.18085       -2.44247
H         -4.11645        3.12674       -0.63243
H         -2.55383        3.37020       -1.42968
H         -3.79777        2.36725       -2.19386
H         -1.68334       -2.73120        1.05700
H          0.31500        1.42885        2.16333
H          0.39726       -0.32414        2.30182
H          1.56031        1.42574        0.03504
H          3.47737       -1.03817       -1.30809
H          3.38871        0.69973       -1.07918
H          4.96414        0.50750        0.87609
H          5.07412       -1.22929        0.61279
H          7.22377       -0.19599        0.56902
H          1.40784       -2.03127        1.56555
H          3.09385       -1.74894        2.04022
H          2.72639       -2.56754        0.52217
H         -0.86017        4.44478        1.31084
H         -2.51155        3.79069        1.12232
H         -1.39805        3.06663        2.31570
