46
omegacsd_CDBMPI10_02.log	Energy: -649538.6183391
O         -3.34479        2.02822       -0.45569
C         -2.66301        1.06437       -0.13703
N         -1.35323        1.19003        0.25664
C         -0.62679        0.19157        1.05470
C          0.83526        0.64884        1.20067
N          1.35446        1.22136       -0.02741
C          0.61437        2.37636       -0.56529
C         -0.72629        2.49791        0.15943
C          1.43807        3.65458       -0.45667
C          2.28038        0.63831       -0.85336
O          2.43647        1.01872       -2.00643
C          3.15214       -0.46220       -0.30875
C          3.82211       -0.35114        0.91082
C          4.69518       -1.35242        1.32456
C          4.89803       -2.47309        0.52464
C          4.24313       -2.58060       -0.69997
C          3.38541       -1.57162       -1.12170
C         -1.24880       -0.01409        2.43490
C         -3.24938       -0.31984       -0.21118
C         -2.62595       -1.35061       -0.91527
C         -3.24826       -2.58907       -1.03836
C         -4.49087       -2.80579       -0.45005
C         -5.12225       -1.77477        0.24161
C         -4.51053       -0.53104        0.34701
H         -0.62216       -0.76021        0.51545
H          1.43339       -0.21360        1.49348
H          0.91427        1.38567        2.01233
H          0.42087        2.16284       -1.62108
H         -0.59702        2.94562        1.15632
H         -1.39882        3.14914       -0.39947
H          0.88248        4.50649       -0.86432
H          2.36768        3.54824       -1.02189
H          1.68333        3.87249        0.58989
H          3.67719        0.53286        1.52850
H          5.22147       -1.25378        2.27039
H          5.57658       -3.25750        0.84991
H          4.41126       -3.44780       -1.33321
H          2.89637       -1.62402       -2.09048
H         -2.25517       -0.43498        2.35285
H         -0.64076       -0.70348        3.03224
H         -1.31562        0.93997        2.97088
H         -1.66516       -1.17430       -1.39412
H         -2.76391       -3.38411       -1.59928
H         -4.97373       -3.77533       -0.54144
H         -6.09944       -1.93671        0.68899
H         -5.00703        0.29326        0.85209
