66
omegapdb_1z1r_23.log	Energy: -1302677.7791150
C          0.19839        0.05544        0.60145
C          0.01787       -1.18079        1.54267
C         -1.31711       -1.87248        1.36729
C         -2.40226       -1.51646        2.17348
C         -3.69923       -1.90642        1.85572
C         -3.92538       -2.67443        0.71660
C         -2.84080       -3.13565       -0.03317
C         -1.55255       -2.72263        0.28358
O         -5.22208       -2.96882        0.39250
C         -5.63474       -2.70760       -0.94481
C         -6.01502       -1.25211       -1.21294
C         -4.86500       -0.23289       -1.24865
C         -4.76353        0.58890        0.03658
O         -5.57760        0.48753        0.93867
N         -3.69868        1.44586        0.16368
C         -2.79256        1.94344       -0.85408
C         -1.31134        1.69007       -0.48716
O         -0.43591        2.49905       -0.78191
N         -1.09493        0.51075        0.11700
C         -2.98301        3.43836       -1.13044
C         -2.59424        4.27292        0.08087
O         -2.81642        3.89846        1.22445
N         -2.05348        5.49174       -0.18890
C          1.16379       -0.20759       -0.56403
O          0.85142       -1.43387       -1.18464
C          2.61716       -0.22003       -0.08496
N          3.47535       -0.49184       -1.23854
S          4.93031       -1.27829       -1.02037
O          5.54515       -1.30101       -2.33455
O          4.63379       -2.48401       -0.26943
C          5.91241       -0.22437        0.02419
C          6.71106        0.75531       -0.56032
C          7.45012        1.60014        0.25990
C          7.38654        1.46012        1.64450
C          6.59219        0.47001        2.21651
C          5.84955       -0.38229        1.40593
H          0.63759        0.88313        1.17560
H          0.11505       -0.84755        2.58124
H          0.83116       -1.88644        1.34786
H         -2.24199       -0.86318        3.02981
H         -4.55286       -1.56221        2.43038
H         -3.00455       -3.79005       -0.88511
H         -0.72056       -3.01005       -0.35217
H         -4.86944       -3.04179       -1.65846
H         -6.51780       -3.33655       -1.09127
H         -6.52750       -1.24636       -2.18292
H         -6.73813       -0.93205       -0.45679
H         -3.90051       -0.72103       -1.44337
H         -5.02100        0.47023       -2.07803
H         -3.72564        2.02516        0.99913
H         -2.97661        1.39471       -1.78422
H         -1.91321       -0.01509        0.39010
H         -4.03866        3.63170       -1.35387
H         -2.39140        3.72537       -2.00362
H         -1.59472        5.64762       -1.07278
H         -1.69123        5.99808        0.60660
H          1.04457        0.62697       -1.27194
H          1.62484       -1.67024       -1.72043
H          2.76250       -1.04000        0.62586
H          2.87674        0.72776        0.40648
H          3.58591        0.28768       -1.88095
H          6.76674        0.83140       -1.64263
H          8.08409        2.36340       -0.18260
H          7.96894        2.12062        2.28136
H          6.55699        0.35352        3.29607
H          5.24720       -1.18005        1.83087
