36
omegapdb_1qxw_27.log	Energy: -410429.8515789
C          3.63571       -1.28195        0.06261
C          3.69817        0.20012        0.34059
C          2.61515       -0.34111       -0.53156
N          1.25470       -0.30457       -0.07549
C          0.47395       -1.45318       -0.49005
C         -0.95660       -1.42238        0.05288
C         -1.93142       -0.45269       -0.66479
N         -3.26231       -0.47346       -0.06809
C         -1.44962        0.99166       -0.83863
C         -1.36116        1.83597        0.43661
C         -0.73945        3.21578        0.19282
C          0.76649        3.17618       -0.06709
O         -0.84205       -1.17510        1.43706
O         -1.55221       -2.69341       -0.14574
H          4.39034       -1.72053       -0.58466
H          3.30804       -1.92762        0.87454
H          4.49046        0.78507       -0.11709
H          3.41955        0.53776        1.33672
H          2.70572       -0.14412       -1.59943
H          1.21163       -0.22585        0.93613
H          0.92966       -2.40954       -0.16852
H          0.42478       -1.48451       -1.58613
H         -2.03627       -0.88097       -1.67031
H         -3.55817       -1.42902        0.10523
H         -3.30768        0.05549        0.79694
H         -0.47100        0.97274       -1.32551
H         -2.15360        1.47614       -1.52794
H         -0.77506        1.30698        1.19765
H         -2.36986        1.98053        0.85011
H         -0.93264        3.85352        1.06526
H         -1.24900        3.69630       -0.65453
H          1.29731        2.74331        0.78938
H          1.01606        2.56215       -0.93839
H          1.16279        4.18366       -0.23611
H         -1.74365       -1.03373        1.76157
H         -1.05942       -3.31392        0.40915
