57
omegacsd_SPIRIL_23.log	Energy: -797190.0164954
C          2.02451       -1.88159       -0.63090
C          3.18267       -1.04184       -0.02716
C          4.39254       -1.97957        0.13788
O          4.54144       -2.82634        0.99653
N          5.24011       -1.70974       -0.89999
C          4.63490       -0.77373       -1.83960
N          3.64382       -0.05869       -1.04809
C          4.05515        1.23695       -0.59259
C          5.35674        1.51806       -0.16724
C          5.69616        2.80234        0.24810
C          4.74024        3.81373        0.26115
C          3.44094        3.53633       -0.15451
C          3.10450        2.25851       -0.58829
C          2.74722       -0.48047        1.33354
C          1.24371       -0.24140        1.40827
N          0.52677       -1.50731        1.32242
C         -0.90228       -1.35921        1.13535
C         -1.37452       -0.87071       -0.25405
C         -2.87147       -0.73953       -0.31672
C         -3.59725        0.33390        0.02699
C         -5.08358        0.30969       -0.09197
C         -5.89392        0.99030        0.82474
C         -7.28057        0.96429        0.72825
C         -7.86230        0.25477       -0.30896
C         -7.09876       -0.41940       -1.24815
C         -5.71473       -0.38062       -1.13442
F         -9.20373        0.22905       -0.41444
C         -2.98678        1.60769        0.56016
C          1.17669       -2.50957        0.47552
H          1.41583       -1.20561       -1.24275
H          2.41440       -2.66021       -1.29974
H          5.94028       -2.38823       -1.16220
H          5.37053       -0.08118       -2.25586
H          4.14733       -1.30751       -2.66879
H          6.10096        0.72481       -0.14808
H          6.71225        3.00887        0.57498
H          5.00732        4.81419        0.59121
H          2.68905        4.32139       -0.15615
H          2.10188        2.03382       -0.94337
H          3.29297        0.43486        1.57518
H          3.02216       -1.22818        2.08623
H          0.95432        0.47152        0.61226
H          0.99271        0.24065        2.36232
H         -1.26884       -0.65520        1.89511
H         -1.38456       -2.32142        1.35270
H         -1.04539       -1.58760       -1.01742
H         -0.88874        0.08236       -0.49445
H         -3.40919       -1.63675       -0.62426
H         -5.43939        1.54352        1.64235
H         -7.91114        1.48394        1.44289
H         -7.58922       -0.94809       -2.05953
H         -5.10784       -0.87939       -1.88551
H         -3.18018        1.71975        1.63445
H         -1.90223        1.63114        0.42684
H         -3.41413        2.48585        0.06324
H          0.40592       -3.15403        0.03782
H          1.82116       -3.15739        1.08546
