66
omegapdb_1z1r_30.log	Energy: -1302674.1179612
C          0.22179       -2.13039        0.17422
C         -0.79146       -2.98074       -0.62394
C         -2.07807       -2.28131       -0.97907
C         -3.20788       -2.38177       -0.16367
C         -4.35345       -1.63871       -0.42487
C         -4.39031       -0.78118       -1.52253
C         -3.29962       -0.72921       -2.39395
C         -2.15690       -1.46708       -2.11190
O         -5.53009       -0.05066       -1.70845
C         -5.38996        1.32764       -2.03900
C         -5.18047        2.22410       -0.82302
C         -3.90821        1.94956       -0.01165
C         -4.17057        1.06043        1.20132
O         -5.28765        0.94356        1.67992
N         -3.09722        0.48381        1.82502
C         -1.76304        0.21652        1.33387
C         -1.29214       -1.07744        2.02569
O         -1.77206       -1.37020        3.11148
N         -0.23396       -1.80065        1.53340
C         -0.77225        1.34006        1.72325
C         -0.69660        2.42998        0.66873
O         -0.47770        2.16892       -0.50779
N         -0.85798        3.70159        1.10935
C          0.77126       -0.90521       -0.57453
O          1.09907       -1.33091       -1.89805
C          2.03813       -0.35372        0.08753
N          3.10401       -1.33354       -0.07105
S          4.57281       -1.06080        0.63943
O          4.30214       -0.70244        2.02096
O          5.40505       -2.19078        0.26988
C          5.24721        0.38436       -0.15609
C          5.01419        1.64129        0.39446
C          5.51066        2.76718       -0.25545
C          6.23081        2.62857       -1.43855
C          6.46589        1.36432       -1.97527
C          5.97491        0.23302       -1.33402
H          1.09116       -2.77590        0.34388
H         -1.00782       -3.87063       -0.02033
H         -0.28245       -3.32253       -1.52987
H         -3.18257       -3.02623        0.71388
H         -5.21279       -1.66637        0.23871
H         -3.33563       -0.11255       -3.28724
H         -1.30061       -1.40806       -2.77971
H         -4.57880        1.47089       -2.76423
H         -6.32664        1.59741       -2.53551
H         -6.03764        2.13098       -0.14927
H         -5.16340        3.25571       -1.19683
H         -3.10074        1.55537       -0.63826
H         -3.52657        2.89356        0.40151
H         -3.33892       -0.05996        2.64752
H         -1.76981        0.09281        0.24881
H         -0.01019       -2.52363        2.20708
H         -1.05677        1.72263        2.70806
H          0.24260        0.93744        1.81260
H         -0.79744        4.45392        0.43968
H         -1.07480        3.91769        2.06848
H          0.03574       -0.09691       -0.62512
H          1.10474       -0.54397       -2.45826
H          2.28767        0.61624       -0.37289
H          1.88290       -0.20054        1.15870
H          3.18801       -1.68752       -1.02035
H          4.47407        1.72343        1.33327
H          5.34265        3.75311        0.16910
H          6.62067        3.51006       -1.94080
H          7.04091        1.25893       -2.89110
H          6.16991       -0.76266       -1.72266
