24
omegapdb_1gs5_21.log	Energy: -441835.5139434
C          0.23069        0.11904       -0.34117
C          0.61853        1.59286       -0.10674
O          1.75231        1.99448       -0.11926
O         -0.41986        2.40585        0.11625
C         -0.50535       -0.48016        0.88445
C         -1.74587       -1.27407        0.49139
C         -2.84810       -0.38046       -0.04746
O         -2.74583        0.81698       -0.19439
O         -3.99727       -0.98382       -0.37639
N          1.32455       -0.70308       -0.80562
C          2.57080       -0.87027       -0.22028
O          3.48644       -1.30555       -0.89173
C          2.72760       -0.61568        1.26330
H         -0.48277        0.14826       -1.17338
H         -1.27010        1.92532        0.03197
H          0.17853       -1.14257        1.41877
H         -0.79612        0.30904        1.58551
H         -1.49373       -2.02357       -0.27198
H         -2.14292       -1.82577        1.35371
H         -3.94279       -1.93533       -0.20669
H          1.40782       -0.79313       -1.80978
H          2.43713       -1.51510        1.81893
H          2.15045        0.23546        1.62653
H          3.78654       -0.43223        1.44902
