36
omegapdb_1qxw_14.log	Energy: -410434.4504571
C         -4.12232       -1.61214        0.54177
C         -3.62767       -1.67523       -0.88210
C         -3.55083       -0.38995       -0.09786
N         -2.29586        0.13293        0.37121
C         -1.46870        0.70164       -0.68678
C         -0.23771        1.40117       -0.08074
C          0.90255        0.46200        0.35721
N          0.40043       -0.39884        1.43362
C          1.46448       -0.38147       -0.78677
C          2.73714       -1.16546       -0.44370
C          3.92805       -0.30209       -0.02504
C          5.20757       -1.11787        0.14350
O         -0.66708        2.14821        1.03605
O          0.32880        2.27762       -1.02211
H         -3.52421       -2.10585        1.30420
H         -5.19217       -1.65045        0.72471
H         -2.69454       -2.20434       -1.06213
H         -4.35770       -1.76197       -1.68218
H         -4.25474        0.39283       -0.37800
H         -1.74639       -0.58201        0.84850
H         -2.05771        1.47353       -1.20047
H         -1.16055       -0.02513       -1.45261
H          1.68716        1.15213        0.70670
H          0.17796        0.19540        2.22874
H          1.13641       -1.02823        1.74100
H          0.69552       -1.09385       -1.11297
H          1.66979        0.28727       -1.63099
H          3.02269       -1.75313       -1.32710
H          2.53158       -1.90838        0.34212
H          3.70446        0.21804        0.91569
H          4.08415        0.48346       -0.77705
H          5.48437       -1.61337       -0.79459
H          5.08071       -1.89815        0.90382
H          6.04865       -0.48710        0.45004
H         -1.53659        1.76703        1.26886
H         -0.22004        3.07332       -0.99864
