61
omegapdb_1v2k_15.log	Energy: -1425428.8678009
N         -9.71638        1.86050       -0.69918
C         -9.15390        1.15429       -1.67990
C         -8.06642        0.30525       -1.53117
C         -7.47497        0.15054       -0.26293
C         -8.06411        0.89762        0.77673
C         -9.15114        1.70964        0.50222
N         -6.37377       -0.65722       -0.07928
C         -5.96438       -1.16656        1.21843
C         -4.45594       -0.97735        1.42767
C         -3.68176       -1.20756        0.10367
C         -4.51383       -2.09220       -0.82571
C         -5.80716       -1.37258       -1.21733
C         -2.33917       -1.86654        0.39810
O         -2.23477       -3.08620        0.41886
N         -1.27681       -1.05060        0.67671
C          0.02224       -1.66734        0.92190
C          1.12176       -0.87712        0.22939
N          1.15377        0.50214        0.75327
C         -0.09881        0.96729        1.36403
C         -1.32248        0.41144        0.64497
S          1.95515        1.59696       -0.22716
O          1.64872        1.35669       -1.63268
O          1.73187        2.91133        0.35549
C          3.64337        1.12367        0.04074
C          4.35614        0.58411       -0.99320
C          5.71395        0.21809       -0.79534
C          6.30590        0.42339        0.47704
C          5.52661        0.99545        1.52356
C          4.22250        1.34255        1.31637
C          7.66174        0.05693        0.67732
C          8.37705       -0.48694       -0.35416
C          7.79949       -0.69635       -1.62918
C          6.49363       -0.34812       -1.83841
Cl        10.03761       -0.93770       -0.11382
H         -9.60595        1.26529       -2.66542
H         -7.70111       -0.23301       -2.39789
H         -7.67876        0.87418        1.78998
H         -9.59786        2.28504        1.31277
H         -6.51832       -0.66598        2.01126
H         -6.22049       -2.23403        1.29279
H         -4.25826        0.03059        1.81095
H         -4.11805       -1.69019        2.18949
H         -3.53420       -0.24177       -0.39383
H         -4.71294       -3.04602       -0.32814
H         -3.95351       -2.33543       -1.73398
H         -6.52846       -2.09428       -1.63454
H         -5.58638       -0.64220       -2.00671
H         -0.01717       -2.68260        0.52410
H          0.22249       -1.74390        1.99891
H          0.93618       -0.87266       -0.85227
H          2.09268       -1.35201        0.41073
H         -0.10943        0.65179        2.41352
H         -0.11056        2.05842        1.34926
H         -2.22112        0.77561        1.15344
H         -1.33929        0.78742       -0.38810
H          3.88368        0.44329       -1.96203
H          5.98998        1.15685        2.49379
H          3.62466        1.78776        2.10595
H          8.12569        0.21049        1.64750
H          8.40147       -1.12917       -2.42178
H          6.03699       -0.50171       -2.81314
