44
omegacsd_CUHNEY10_01.log	Energy: -1049286.2927471
Cl         4.05855        3.03943       -0.61265
C          2.40930        2.54259       -0.41329
C          1.95042        1.38940       -1.03124
N          0.70051        0.95330       -0.89517
C         -0.14311        1.65581       -0.14401
N         -1.43473        1.10638       -0.05177
C         -2.55140        1.71617        0.52122
O         -2.59947        2.79687        1.06141
C         -3.67185        0.74858        0.29824
N         -4.93889        0.89981        0.66234
C         -5.70810       -0.13736        0.33007
C         -5.21444       -1.27034       -0.33177
N         -3.93576       -1.40614       -0.68985
C         -3.18573       -0.36343       -0.36150
C         -1.70831       -0.21648       -0.61716
O         -0.98374       -1.19748        0.09038
C         -0.15364       -1.98479       -0.66869
O         -0.22626       -2.05660       -1.87590
N          0.70179       -2.69207        0.11763
C          0.99684       -2.35176        1.50435
C          2.28375       -1.53601        1.58149
N          3.38315       -2.24303        0.93848
C          3.06920       -2.55852       -0.44879
C          1.79693       -3.39483       -0.53752
C          4.61200       -1.48028        1.03391
C          0.22164        2.83912        0.51290
C          1.52618        3.28045        0.36859
H          2.61227        0.79248       -1.65589
H         -6.76029       -0.07601        0.59781
H         -5.88225       -2.09274       -0.57780
H         -1.44118       -0.26980       -1.67502
H          0.15960       -1.80436        1.93474
H          1.12434       -3.28973        2.05796
H          2.10849       -0.54607        1.11421
H          2.54566       -1.36464        2.63262
H          2.93097       -1.63941       -1.05425
H          3.90987       -3.11530       -0.87947
H          1.51951       -3.57983       -1.57551
H          1.94682       -4.35307       -0.02637
H          4.54614       -0.49823        0.52527
H          4.85612       -1.30219        2.08660
H          5.43526       -2.04452        0.58315
H         -0.50003        3.38385        1.10642
H          1.85881        4.18942        0.86097
