36
omegapdb_1qxw_10.log	Energy: -410433.6284266
C         -4.07098        0.66832       -0.06885
C         -4.81362       -0.60485        0.22372
C         -3.54488       -0.63631       -0.57627
N         -2.38063       -1.20512        0.05757
C         -1.10300       -0.90932       -0.58993
C         -0.48638        0.37287       -0.00282
C          1.04783        0.44794       -0.19241
N          1.56988        1.79666        0.01373
C          1.80057       -0.53837        0.71097
C          3.14621       -1.01883        0.15864
C          4.22388        0.05677        0.02029
C          5.54693       -0.51869       -0.47930
O         -1.10124        1.45538       -0.69743
O         -0.77460        0.46820        1.36083
H         -3.52071        1.13161        0.74405
H         -4.48605        1.36529       -0.79050
H         -5.75119       -0.79549       -0.29020
H         -4.76387       -0.99226        1.23769
H         -3.63855       -0.81511       -1.65075
H         -2.50125       -2.20797        0.14477
H         -0.42851       -1.75109       -0.40619
H         -1.19795       -0.77929       -1.67715
H          1.24032        0.19247       -1.24609
H          1.37228        2.08228        0.97095
H          1.07174        2.43712       -0.59857
H          1.94479       -0.06520        1.69135
H          1.17376       -1.41694        0.90493
H          2.98313       -1.49405       -0.82117
H          3.52576       -1.81357        0.81745
H          4.37287        0.54024        0.99573
H          3.87233        0.84901       -0.64837
H          5.92939       -1.28716        0.20407
H          6.31386        0.25806       -0.57071
H          5.42674       -0.98547       -1.46483
H         -1.15052        2.17051       -0.04909
H         -1.58583       -0.06971        1.47210
