45
omegacsd_SEYMIS_03.log	Energy: -753206.6944307
O         -3.46367        3.04953       -0.39457
N         -4.29650        2.04782        0.05003
C         -3.61575        0.93131       -0.02985
C         -2.28831        1.18675       -0.52418
C         -1.16524        0.24313       -0.79374
O         -1.28275       -0.77785       -1.45615
N          0.02676        0.64232       -0.26117
C          1.24460       -0.04878       -0.39663
C          1.48636       -1.22293       -1.08858
N          2.80684       -1.52744       -0.96142
C          3.43070       -2.69690       -1.56151
C          3.41725       -0.56486       -0.19516
C          2.46444        0.36928        0.16870
C          4.84481       -0.60315        0.12641
O          5.62487       -1.46080       -0.23703
O          5.20135        0.44636        0.88668
C          6.58968        0.49678        1.24924
C          6.79349        1.74819        2.07496
C         -2.27628        2.53433       -0.73112
C         -1.27003        3.49377       -1.26636
C         -4.25506       -0.32250        0.42951
C         -5.18657       -0.25926        1.47178
C         -5.82682       -1.41104        1.90944
C         -5.54330       -2.63684        1.31195
C         -4.61968       -2.70278        0.27410
C         -3.97548       -1.55231       -0.17095
H          0.01680        1.41789        0.38380
H          0.80827       -1.84496       -1.65081
H          2.65307       -3.25834       -2.08295
H          4.20729       -2.39824       -2.26779
H          3.88860       -3.32315       -0.79445
H          2.65029        1.24673        0.77437
H          6.84392       -0.41011        1.80732
H          7.19423        0.50330        0.33660
H          6.17950        1.72090        2.98016
H          7.84366        1.83218        2.37173
H          6.52450        2.63983        1.50071
H         -0.38342        2.96224       -1.61796
H         -0.97215        4.21492       -0.49803
H         -1.69869        4.05542       -2.10155
H         -5.40121        0.70107        1.93176
H         -6.54787       -1.35238        2.72068
H         -6.04257       -3.53914        1.65631
H         -4.39928       -3.65606       -0.19935
H         -3.25590       -1.60209       -0.98206
