39
omegacsd_FIBREN_14.log	Energy: -667546.1334684
N          2.92181       -0.37656        1.76385
C          1.69054       -0.21372        2.25622
N          0.58969        0.15163        1.56963
C          0.68685        0.39347        0.26481
C          1.93128        0.24868       -0.35762
C          2.96731       -0.13325        0.46667
O          4.08009       -0.22834       -0.30888
C          3.64387        0.10224       -1.56864
N          2.39010        0.39240       -1.66317
C          4.66597        0.08370       -2.64466
N         -0.42057        0.82691       -0.44117
C         -1.77529        0.51059        0.05147
C         -2.77787        1.49215       -0.56865
C         -2.64986        2.94129       -0.10437
O         -3.60816        3.64661        0.07494
O         -1.40152        3.40204        0.06807
C         -2.13363       -0.94484       -0.19656
C         -2.49501       -1.39692       -1.46780
C         -2.78533       -2.73908       -1.68678
C         -2.71819       -3.64782       -0.63418
C         -2.35764       -3.20724        0.63502
C         -2.06540       -1.86365        0.85121
C          1.49437       -0.46246        3.72362
H          5.12015       -0.90841       -2.72565
H          5.46254        0.80194       -2.42776
H          4.19005        0.34474       -3.59051
H         -0.30301        0.70355       -1.44307
H         -1.73593        0.67562        1.13140
H         -3.79742        1.17813       -0.33581
H         -2.68834        1.48589       -1.66429
H         -0.76295        2.68514       -0.12454
H         -2.55895       -0.69833       -2.30062
H         -3.06823       -3.07548       -2.68093
H         -2.94675       -4.69670       -0.80398
H         -2.30343       -3.91150        1.46120
H         -1.77014       -1.51920        1.83983
H          0.75402       -1.25492        3.87365
H          2.43831       -0.75192        4.18744
H          1.10794        0.43953        4.20816
