24
omegapdb_1gs5_06.log	Energy: -441845.7928554
C          1.17666       -0.18067        0.68565
C          2.22010       -1.00901       -0.05159
O          2.88666       -0.60692       -0.97706
O          2.34179       -2.23750        0.46230
C         -0.17391       -0.90950        0.80155
C         -0.94841       -1.00748       -0.52092
C         -2.45797       -0.97147       -0.31629
O         -3.19636       -1.85069       -0.67982
O         -2.93229        0.12219        0.30061
N          1.13272        1.10040        0.00357
C          0.17991        2.04873        0.14856
O         -0.81306        1.90869        0.86238
C          0.39833        3.32263       -0.63699
H          1.56177       -0.04639        1.70726
H          3.03348       -2.68918       -0.04972
H          0.02301       -1.90824        1.20117
H         -0.76157       -0.37740        1.54955
H         -0.71529       -1.93010       -1.05706
H         -0.68235       -0.16877       -1.17696
H         -2.21989        0.76216        0.50796
H          1.88866        1.25143       -0.65221
H          1.32675        3.33030       -1.21378
H         -0.44895        3.46683       -1.31285
H          0.40321        4.16099        0.06448
