44
omegacsd_CUHNEY10_03.log	Energy: -1049281.3124805
Cl         4.18225        2.75474       -0.59144
C          2.50590        2.33919       -0.41397
C          2.01776        1.16229       -0.96261
N          0.74283        0.80188       -0.84493
C         -0.09099        1.59301       -0.17632
N         -1.40712        1.10267       -0.09377
C         -2.50438        1.76660        0.45270
O         -2.51983        2.86567        0.95739
C         -3.65499        0.82832        0.25778
N         -4.91776        1.03292        0.61046
C         -5.71914        0.01000        0.31140
C         -5.26030       -1.16073       -0.30806
N         -3.98547       -1.35013       -0.65567
C         -3.20274       -0.32173       -0.36015
C         -1.72120       -0.22943       -0.61848
O         -1.02512       -1.21252        0.11156
C         -0.18693       -2.01217       -0.62968
O         -0.28037       -2.13880       -1.83019
N          0.69359       -2.66724        0.17069
C          1.77736       -3.40743       -0.46879
C          3.12496       -2.98978        0.14510
N          3.07793       -1.57953        0.48617
C          2.18106       -1.33938        1.61236
C          0.96727       -2.28275        1.54472
C          4.38310       -0.99899        0.72044
C          0.30548        2.80230        0.41046
C          1.63397        3.17205        0.28010
H          2.67046        0.47600       -1.49564
H         -6.76973        0.11489        0.57187
H         -5.95369       -1.96924       -0.52814
H         -1.45983       -0.31925       -1.67553
H          1.74830       -3.16911       -1.53299
H          1.62268       -4.48819       -0.35263
H          3.37546       -3.61910        1.02210
H          3.91772       -3.15214       -0.59286
H          2.69416       -1.49740        2.58088
H          1.85885       -0.29064        1.57847
H          0.08445       -1.82184        1.98388
H          1.17072       -3.20303        2.10515
H          4.27473        0.07266        0.92492
H          5.00786       -1.11046       -0.17228
H          4.91161       -1.45834        1.57749
H         -0.40827        3.41833        0.94050
H          1.99371        4.09916        0.71662
