40
omegapdb_2byh_07.log	Energy: -1016185.6743562
O         -6.72684       -0.49716        0.18602
C         -5.85428        0.34723        0.25596
C         -6.20603        1.81316        0.40968
C         -4.41030       -0.03763        0.19024
C         -3.37165        0.89337        0.27185
C         -2.05119        0.48082        0.20347
C         -1.73918       -0.87614        0.05352
C         -2.77050       -1.81899       -0.03142
C         -4.08657       -1.38737        0.03777
N         -0.37492       -1.20690       -0.00037
C          0.19965       -2.42696       -0.25973
O         -0.42818       -3.45575       -0.44531
C          1.68626       -2.44053       -0.30464
C          2.42832       -3.63158       -0.48996
N          3.72975       -3.41457       -0.47035
N          3.84039       -2.09198       -0.26822
C          2.64760       -1.44619       -0.17707
C          2.58632        0.01293        0.04943
C          2.03442        0.87657       -0.90519
C          1.96641        2.24085       -0.68915
Cl         1.26980        3.28497       -1.88065
C          2.47472        2.78354        0.50291
O          2.39477        4.11796        0.67256
C          3.02882        1.93803        1.45753
C          3.08207        0.56318        1.24190
O          3.62505       -0.18913        2.22654
H         -5.81414        2.39770       -0.43024
H         -7.29216        1.91003        0.44334
H         -5.77508        2.22487        1.32913
H         -3.58401        1.95306        0.38690
H         -1.24893        1.21577        0.25696
H         -2.53060       -2.86652       -0.15345
H         -4.90055       -2.10386       -0.02534
H          0.25613       -0.43189        0.14816
H          2.02920       -4.62735       -0.62788
H          4.75419       -1.66294       -0.30322
H          1.65039        0.46787       -1.83632
H          2.77848        4.35670        1.52660
H          3.41779        2.33179        2.39306
H          3.51826       -1.12874        2.01505
