34
omegapdb_2f7p_04.log	Energy: -719064.0679271
C         -0.96408        0.19343       -0.67012
N          0.38130        0.23266       -0.12008
C          1.43803        0.16201       -1.13155
C          2.79632        0.06322       -0.48112
C          3.15072       -1.09606        0.21342
C          4.38691       -1.19490        0.83868
C          5.28625       -0.13139        0.77716
C          4.94199        1.02583        0.08835
C          3.70033        1.12129       -0.53712
C         -1.41411       -1.29255       -0.86590
O         -0.68947       -2.12862        0.01141
C         -2.93151       -1.32318       -0.49346
O         -3.13583       -2.02157        0.71513
C         -3.31775        0.15112       -0.24795
O         -4.39958        0.28865        0.62748
C         -2.01361        0.75670        0.28060
S         -1.99112        2.56686        0.35440
H         -1.03457        0.72251       -1.63511
H          0.51150        1.05217        0.46745
H          1.40467        1.02347       -1.81827
H          1.25047       -0.73577       -1.73478
H          2.44807       -1.92702        0.25475
H          4.65310       -2.10362        1.37250
H          6.25462       -0.20844        1.26473
H          5.63979        1.85766        0.03624
H          3.43295        2.02854       -1.07621
H         -1.25470       -1.62802       -1.89719
H         -0.01944       -1.52666        0.41014
H         -3.54317       -1.77888       -1.28111
H         -2.26345       -2.39689        0.94148
H         -3.58381        0.64542       -1.19101
H         -4.31329       -0.46198        1.24039
H         -1.83319        0.34915        1.28360
H         -3.11864        2.66931        1.07463
