45
omegacsd_SEYMIS_10.log	Energy: -753205.2561037
O         -4.83134       -2.16283       -0.19369
N         -4.94417       -0.79202       -0.12656
C         -3.72565       -0.33391        0.00997
C         -2.77022       -1.40688        0.03892
C         -1.28240       -1.43764        0.10572
O         -0.67607       -2.44635        0.43928
N         -0.65973       -0.28199       -0.26469
C          0.72667       -0.05500       -0.23205
C          1.30036        1.18363       -0.44523
N          2.65499        1.06491       -0.35507
C          3.56690        2.18294       -0.52814
C          2.95422       -0.25144       -0.07801
C          1.77431       -0.96826        0.00226
C          4.28955       -0.83178        0.10492
O          4.48466       -2.00339        0.33715
O          5.28686        0.07171       -0.01155
C          6.61109       -0.45842        0.15368
C          7.58019        0.69213       -0.01237
C         -3.54877       -2.52370       -0.08639
C         -3.25813       -3.98006       -0.13664
C         -3.53596        1.13173        0.12422
C         -4.24648        1.98694       -0.72266
C         -4.10031        3.36483       -0.60935
C         -3.24319        3.90109        0.34793
C         -2.53794        3.05511        1.19949
C         -2.68550        1.67594        1.09238
H         -1.23556        0.49822       -0.54505
H          0.83753        2.14052       -0.65191
H          4.26044        1.99384       -1.34951
H          4.14558        2.35600        0.38140
H          2.97169        3.07037       -0.75362
H          1.68891       -2.02286        0.21082
H          6.68723       -0.92127        1.14246
H          6.77296       -1.24390       -0.59118
H          7.39897        1.46530        0.74080
H          8.60805        0.33404        0.10245
H          7.48131        1.14422       -1.00419
H         -2.18011       -4.13289       -0.08885
H         -3.72699       -4.48247        0.71559
H         -3.66647       -4.41735       -1.05286
H         -4.91570        1.55938       -1.46385
H         -4.65773        4.02164       -1.27180
H         -3.12848        4.97846        0.43440
H         -1.87837        3.46775        1.95830
H         -2.14620        1.01788        1.76945
