45
omegacsd_FABSOQ10_00.log	Energy: -924265.7994878
S         -0.00149        0.68233       -0.09788
C         -1.14341        1.90240       -0.54641
C         -0.78878        3.12039       -0.05539
C          0.41698        3.07319        0.71195
C          0.96362        1.82876        0.77996
C          2.16075        1.38788        1.58468
O          1.76566        0.78431        2.80867
C          3.12949        0.50873        0.80053
C          3.76172       -0.56631        1.41125
C          4.68018       -1.35898        0.72102
C          4.98134       -1.06427       -0.60620
O          5.85639       -1.76545       -1.37664
C          6.50184       -2.87237       -0.78741
C          4.35989        0.02378       -1.22973
C          3.44724        0.79477       -0.53346
C         -2.32011        1.57817       -1.43448
O         -3.11624        2.75069       -1.47778
C         -3.10975        0.37637       -0.94963
C         -3.91223        0.47887        0.18338
C         -4.64300       -0.60903        0.65075
C         -4.56691       -1.83024       -0.02381
O         -5.23530       -2.95491        0.34318
C         -6.05948       -2.88509        1.48672
C         -3.76370       -1.94449       -1.16135
C         -3.04845       -0.84805       -1.61711
H         -1.37099        4.01469       -0.24317
H          0.85559        3.93439        1.20722
H          2.68483        2.30094        1.89320
H          1.17561        0.04950        2.58860
H          3.53880       -0.78560        2.45137
H          5.14842       -2.19372        1.23215
H          7.11462       -2.57065        0.07226
H          5.77982       -3.63372       -0.46434
H          7.14809       -3.29280       -1.55967
H          4.60720        0.23702       -2.26553
H          2.96613        1.63323       -1.03302
H         -1.93525        1.34852       -2.44300
H         -3.91602        2.52934       -1.97161
H         -3.96611        1.43082        0.70677
H         -5.25905       -0.49518        1.53657
H         -6.86112       -2.14588        1.36000
H         -5.48029       -2.63794        2.38584
H         -6.49955       -3.87661        1.60330
H         -3.72254       -2.90159       -1.67263
H         -2.43173       -0.94592       -2.50925
