34
omegapdb_2f7p_07.log	Energy: -719059.9287993
C         -0.93731       -0.04234       -0.70263
N          0.42776       -0.39535       -0.41251
C          1.36459        0.71362       -0.34374
C          2.78051        0.23278       -0.10864
C          3.66038        0.99537        0.65939
C          4.97471        0.58286        0.85627
C          5.42261       -0.60751        0.29196
C          4.54887       -1.37854       -0.47007
C          3.23700       -0.96082       -0.67060
C         -1.84245       -1.28240       -0.68092
O         -1.58732       -2.14039        0.42431
C         -3.25372       -0.69666       -0.54893
O         -4.19952       -1.65151       -0.11582
C         -3.06386        0.41613        0.50371
O         -3.05106       -0.19062        1.79461
C         -1.65786        0.98570        0.24107
S         -1.66436        2.61863       -0.56122
H         -0.96801        0.36236       -1.72626
H          0.46954       -0.96962        0.42429
H          1.31084        1.24898       -1.30303
H          1.10700        1.45999        0.42839
H          3.31100        1.92275        1.11046
H          5.64701        1.18906        1.45851
H          6.44724       -0.93534        0.44864
H          4.89115       -2.31129       -0.91189
H          2.54801       -1.56069       -1.25932
H         -1.70445       -1.89659       -1.57422
H         -1.81993       -1.63265        1.22501
H         -3.58264       -0.26353       -1.50128
H         -3.67758       -2.42697        0.14929
H         -3.84823        1.18165        0.45854
H         -3.84631       -0.75026        1.80479
H         -1.13024        1.05781        1.19756
H         -2.21649        3.30491        0.45161
