45
omegacsd_FABSOQ10_12.log	Energy: -924266.1775497
S         -0.64470       -0.99378        0.93400
C          1.02326       -0.92309        0.47753
C          1.19118       -1.24084       -0.83595
C         -0.03800       -1.57443       -1.48384
C         -1.11696       -1.49591       -0.65689
C         -2.54608       -1.85596       -0.97870
O         -2.89727       -3.11416       -0.41886
C         -3.55610       -0.77225       -0.61572
C         -3.25643        0.57987       -0.75095
C         -4.20092        1.56596       -0.47143
C         -5.47535        1.19590       -0.04316
O         -6.47182        2.06971        0.26426
C         -6.19696        3.44672        0.13270
C         -5.78988       -0.15892        0.09317
C         -4.84192       -1.12609       -0.19525
C          2.06928       -0.59862        1.51336
O          1.52114        0.41466        2.34454
C          3.38559       -0.18305        0.88759
C          4.42239       -1.10342        0.71746
C          5.61447       -0.73057        0.11831
C          5.79518        0.58528       -0.31882
O          6.99810        0.85701       -0.88963
C          7.22092        2.16960       -1.35775
C          4.77032        1.51765       -0.14860
C          3.57528        1.12280        0.44858
H          2.15972       -1.24112       -1.32503
H         -0.11504       -1.86736       -2.52662
H         -2.58879       -2.02744       -2.06139
H         -2.80991       -3.03603        0.54176
H         -2.26327        0.88123       -1.07727
H         -3.92671        2.60951       -0.58517
H         -5.38087        3.76003        0.79689
H         -5.93989        3.70842       -0.90216
H         -7.11294        3.96666        0.41813
H         -6.78879       -0.42705        0.42509
H         -5.09234       -2.17856       -0.09878
H          2.24575       -1.50849        2.11200
H          2.15441        0.57448        3.05665
H          4.29366       -2.12923        1.05954
H          6.42679       -1.43825       -0.01824
H          8.22390        2.17089       -1.78717
H          7.17602        2.90180       -0.54108
H          6.49507        2.44881       -2.13233
H          4.88778        2.54566       -0.47514
H          2.77381        1.84485        0.58395
