44
omegacsd_CUHNEY10_10.log	Energy: -1049278.8650995
Cl        -3.43715        3.84300        0.52424
C         -1.89686        3.06910        0.33816
C         -1.67100        1.82137        0.89923
N         -0.50913        1.18333        0.78049
C          0.47506        1.76595        0.09922
N          1.65829        1.00977        0.02553
C          2.85305        1.40482       -0.57792
O          3.07818        2.44930       -1.14441
C          3.79332        0.26252       -0.35216
N          5.05830        0.18292       -0.74560
C          5.64208       -0.96687       -0.40737
C          4.97421       -1.98376        0.28963
N          3.70112       -1.88639        0.67817
C          3.13661       -0.73497        0.34172
C          1.71461       -0.32688        0.62741
O          0.80830       -1.18963       -0.01586
C         -0.14956       -1.74214        0.80228
O         -0.01402       -1.86699        2.00052
N         -1.22096       -2.16260        0.09341
C         -2.30859       -2.78669        0.84406
C         -3.27618       -3.42377       -0.14871
N         -3.85610       -2.46989       -1.09620
C         -2.96093       -1.35734       -1.39980
C         -1.50028       -1.77121       -1.28675
C         -5.16700       -1.98822       -0.71182
C          0.34530        3.02641       -0.50068
C         -0.86826        3.68012       -0.37152
H         -2.45076        1.31701        1.46661
H          6.68161       -1.09673       -0.69903
H          5.49298       -2.90681        0.53805
H          1.48450       -0.29746        1.69550
H         -2.81980       -2.03819        1.46679
H         -1.88880       -3.53591        1.52110
H         -4.08640       -3.91671        0.39775
H         -2.74340       -4.21024       -0.70024
H         -3.12178       -0.50588       -0.70953
H         -3.16507       -0.99047       -2.41387
H         -0.85389       -0.93486       -1.55364
H         -1.28495       -2.59783       -1.97630
H         -5.56107       -1.34018       -1.50265
H         -5.85805       -2.82904       -0.59474
H         -5.16315       -1.40337        0.22868
H          1.17333        3.46522       -1.04047
H         -1.01732        4.65844       -0.81870
