41
omegacsd_CEJTIU_00.log	Energy: -611038.9602704
C          6.60034       -1.66817        0.12360
N          6.08172       -0.34637       -0.15579
C          6.93218        0.77663        0.17450
C          4.69963       -0.15953       -0.10171
C          4.13385        1.12647       -0.05928
C          2.75907        1.30266       -0.04012
C          1.88789        0.21390       -0.05310
C          2.43123       -1.06974       -0.08089
C          3.80956       -1.24566       -0.09969
N          0.50222        0.49453       -0.03100
C         -0.50946       -0.40169       -0.02649
O         -0.42746       -1.61650       -0.04062
N         -1.81043        0.17650       -0.00132
C         -2.18539        1.49140        0.01922
O         -1.39543        2.42606        0.01617
C         -3.68698        1.76963        0.05124
C         -4.61005        0.57642        0.03601
C         -5.07888        0.05327       -1.17146
C         -5.91059       -1.06214       -1.18691
C         -6.28296       -1.67112        0.00788
C         -5.81930       -1.16062        1.21690
C         -4.98853       -0.04460        1.22905
H          6.31949       -2.04056        1.12253
H          6.24569       -2.39010       -0.62016
H          7.69058       -1.64448        0.05773
H          7.97693        0.46346        0.11259
H          6.74840        1.17609        1.18553
H          6.79568        1.59269       -0.54391
H          4.76394        2.00890       -0.04200
H          2.35584        2.31348       -0.00886
H          1.77390       -1.92980       -0.08254
H          4.18727       -2.26228       -0.11409
H          0.21776        1.47153       -0.01736
H         -2.53282       -0.53223        0.00174
H         -3.85169        2.38004        0.94615
H         -3.88168        2.42790       -0.80247
H         -4.79174        0.52776       -2.10810
H         -6.26967       -1.45527       -2.13437
H         -6.93325       -2.54175       -0.00308
H         -6.10598       -1.63080        2.15383
H         -4.62989        0.35357        2.17667
