50
omegapdb_1xom_14.log	Energy: -710686.9870102
O         -5.76956       -2.49383        0.39045
C         -5.47979       -1.35668       -0.28680
O         -6.36090       -0.72354       -0.80168
C         -4.00478       -0.97468       -0.32518
C         -3.78573        0.24594       -1.21899
C         -2.31191        0.64656       -1.26670
C         -1.71336        0.90675        0.13971
C         -1.97906       -0.32207        1.04655
C         -3.45582       -0.71661        1.09029
C         -2.43066        2.05535        0.73203
N         -3.01941        2.93515        1.19942
C         -0.21596        1.21483        0.05214
C          0.32549        2.43297        0.43902
C          1.69592        2.68054        0.33026
C          2.55275        1.70782       -0.16961
O          3.89297        1.85627       -0.32951
C          4.45536        3.10631        0.01245
C          2.01621        0.46174       -0.55394
C          0.65617        0.23590       -0.44286
O          2.81207       -0.50972       -1.09601
C          3.70425       -1.15410       -0.18602
C          4.63908       -2.07139       -0.97103
C          5.09931       -3.14097        0.04519
C          4.17893       -2.97577        1.28320
C          3.01846       -2.09803        0.80183
H         -4.95732       -2.89640        0.72716
H         -3.45811       -1.83221       -0.75228
H         -4.39673        1.07414       -0.84089
H         -4.14953        0.03573       -2.22953
H         -1.72205       -0.15321       -1.73258
H         -2.17568        1.54032       -1.88468
H         -1.38858       -1.15931        0.65401
H         -1.60682       -0.11426        2.05554
H         -3.56482       -1.60159        1.73047
H         -4.04312        0.08201        1.56231
H         -0.31631        3.21782        0.82987
H          2.07848        3.64906        0.63466
H          4.31257        3.33275        1.07682
H          4.02545        3.91536       -0.59127
H          5.52213        3.02373       -0.19992
H          0.29694       -0.73712       -0.76958
H          4.27794       -0.39219        0.35716
H          5.46516       -1.52366       -1.43314
H          4.05251       -2.52257       -1.77971
H          6.15086       -3.01074        0.31948
H          5.01013       -4.14416       -0.38336
H          3.84042       -3.93369        1.68948
H          4.71861       -2.46241        2.08811
H          2.49696       -1.57828        1.61246
H          2.28081       -2.69509        0.24835
