36
omegapdb_1qxw_28.log	Energy: -410431.2295840
C          4.16859       -1.82273       -0.63226
C          4.59977       -0.47822       -0.10076
C          3.31425       -1.11542        0.36633
N          2.02772       -0.60864       -0.02796
C          1.69329        0.65892        0.59420
C          0.39151        1.20918        0.01436
C         -0.78496        0.20347        0.06387
N         -0.92594       -0.44311        1.36172
C         -2.09463        0.88163       -0.36030
C         -3.21271       -0.07186       -0.79743
C         -3.92003       -0.82173        0.33235
C         -5.05979       -1.69595       -0.18480
O          0.12644        2.37536        0.75898
O          0.57525        1.52940       -1.35383
H          4.71104       -2.70898       -0.31664
H          3.81012       -1.86715       -1.65840
H          5.44575       -0.43465        0.57966
H          4.52088        0.37171       -0.77535
H          3.31457       -1.51633        1.37916
H          1.98620       -0.49448       -1.03794
H          2.47344        1.43209        0.46389
H          1.57687        0.51355        1.67361
H         -0.54986       -0.58044       -0.66443
H         -0.93288        0.26572        2.09252
H         -0.11782       -1.03914        1.52177
H         -1.86805        1.55382       -1.19770
H         -2.46576        1.50389        0.46998
H         -3.96313        0.51055       -1.35161
H         -2.80352       -0.79581       -1.51756
H         -4.31518       -0.08916        1.05114
H         -3.19099       -1.42278        0.88394
H         -5.81216       -1.09844       -0.71475
H         -4.68815       -2.45345       -0.88577
H         -5.56554       -2.22035        0.63326
H         -0.68478        2.76023        0.39781
H          1.22119        2.25018       -1.37741
