44
omegacsd_CUHNEY10_19.log	Energy: -1049273.3919179
Cl        -2.37563       -5.09806       -0.04542
C         -1.19657       -3.82738       -0.10638
C         -0.24711       -3.70662        0.90012
N          0.67117       -2.74615        0.91342
C          0.69576       -1.88529       -0.09724
N          1.69644       -0.89092       -0.05041
C          2.94932       -1.04379        0.57277
O          3.40121       -2.02892        1.09065
C          3.62090        0.28676        0.38586
N          4.81673        0.64977        0.83251
C          5.14180        1.90299        0.51170
C          4.29900        2.74511       -0.22594
N          3.10055        2.36257       -0.67399
C          2.79570        1.11488       -0.34752
C          1.52014        0.39751       -0.70112
O          0.40565        1.08812       -0.16637
C         -0.57059        1.45359       -1.05462
O         -0.55430        1.14847       -2.23461
N         -1.52347        2.17840       -0.43530
C         -2.64661        2.69221       -1.19965
C         -3.98124        2.27165       -0.56905
N         -3.86847        2.14013        0.88128
C         -2.85074        3.01387        1.42976
C         -1.47740        2.50649        0.98994
C         -5.15520        2.26511        1.52944
C         -0.22204       -1.91733       -1.15421
C         -1.19058       -2.90825       -1.14776
H         -0.23767       -4.40534        1.73417
H          6.11026        2.26259        0.85176
H          4.60892        3.76118       -0.45906
H          1.38458        0.30627       -1.78245
H         -2.57530        3.78675       -1.24148
H         -2.55811        2.31786       -2.21972
H         -4.31608        1.31071       -0.97915
H         -4.73773        3.02893       -0.84901
H         -2.99611        4.07456        1.14597
H         -2.89806        2.97255        2.52294
H         -1.23297        1.60070        1.54953
H         -0.70084        3.25567        1.19138
H         -5.05435        2.06479        2.60115
H         -5.60954        3.26652        1.40134
H         -5.84748        1.52597        1.11147
H         -0.20510       -1.17940       -1.94996
H         -1.92718       -2.97030       -1.94312
