57
omegacsd_SPIRIL_04.log	Energy: -797199.4235651
C          2.41411       -0.30167        1.14931
C          3.20522       -0.87135       -0.05117
C          3.28716       -2.39420        0.10905
O          2.35254       -3.17338        0.10647
N          4.59450       -2.72137        0.26091
C          5.50334       -1.60713        0.23131
N          4.62099       -0.48685       -0.02526
C          5.14582        0.79966       -0.06501
C          4.34992        1.94884       -0.24024
C          4.92708        3.21099       -0.28358
C          6.30131        3.38582       -0.15625
C          7.09475        2.25899        0.01711
C          6.53488        0.98768        0.06356
C          2.54003       -0.55588       -1.40979
C          1.02067       -0.71294       -1.37747
N          0.46626        0.06290       -0.27561
C         -0.97023        0.26459       -0.36300
C         -1.85865       -0.99397       -0.26128
C         -3.31384       -0.64348       -0.40939
C         -4.14842       -0.25444        0.56492
C         -5.56989        0.07235        0.25489
C         -6.24299        1.09018        0.94138
C         -7.56245        1.41536        0.64786
C         -8.21918        0.70230       -0.34115
C         -7.59785       -0.32510       -1.03243
C         -6.27911       -0.63480       -0.72405
F         -9.49814        1.00685       -0.62956
C         -3.72182       -0.09969        2.00511
C          0.90527       -0.48519        1.00079
H          2.62981        0.76456        1.25087
H          2.76687       -0.78751        2.06786
H          4.88314       -3.67813        0.39166
H          6.03852       -1.49732        1.18906
H          6.25452       -1.72253       -0.56568
H          3.27454        1.86950       -0.34362
H          4.27912        4.07362       -0.42002
H          6.74252        4.37752       -0.19209
H          8.17248        2.36099        0.12062
H          7.19747        0.13880        0.19870
H          2.97171       -1.21323       -2.17444
H          2.78162        0.46918       -1.70029
H          0.60386       -0.32930       -2.31692
H          0.76159       -1.78216       -1.30607
H         -1.26248        0.96276        0.43309
H         -1.18032        0.77306       -1.31346
H         -1.67181       -1.49921        0.69358
H         -1.57640       -1.70530       -1.04669
H         -3.69881       -0.65748       -1.42942
H         -5.72727        1.65379        1.71454
H         -8.08310        2.21095        1.17170
H         -8.15122       -0.87624       -1.78640
H         -5.79477       -1.46048       -1.23868
H         -4.45674       -0.54760        2.68321
H         -2.75101       -0.56362        2.19707
H         -3.63280        0.95916        2.27962
H          0.65024       -1.55292        1.10615
H          0.39872        0.06026        1.80726
