39
omegacsd_GALSEM_02.log	Energy: -1046260.9494980
S         -3.08888       -0.12345        1.02511
O         -2.22347       -0.17288        2.18958
O         -4.52383        0.03830        1.15879
N         -2.97555       -1.60913        0.21255
C         -1.78679       -2.23003       -0.12343
O         -0.71600       -1.67684        0.03243
C         -1.94604       -3.62438       -0.69770
C         -0.62835       -4.18044       -1.21999
C         -2.46312        1.06378       -0.11073
C         -1.11610        1.50683       -0.13505
N         -0.18576        1.11388        0.77673
C          1.21459        1.29515        0.61108
C          2.01090        0.18750        0.32662
C          3.38759        0.34769        0.21574
C          3.97394        1.60115        0.36763
C          3.17224        2.70252        0.64519
C          1.79600        2.55090        0.77936
C          4.24504       -0.83651       -0.13881
F          3.70369       -1.99128        0.28549
F          5.47338       -0.73924        0.40230
F          4.41182       -0.94453       -1.47095
C         -0.81317        2.41138       -1.17603
C         -1.80016        2.81715       -2.04715
N         -3.08445        2.42495       -2.00167
C         -3.37969        1.56211       -1.04316
H         -3.86924       -2.06944        0.08851
H         -2.70439       -3.59325       -1.49045
H         -2.35469       -4.26555        0.09462
H         -0.23226       -3.55487       -2.02454
H         -0.77038       -5.19349       -1.60673
H          0.12138       -4.21126       -0.42560
H         -0.45795        0.33664        1.36676
H          1.54384       -0.78503        0.19413
H          5.05058        1.71046        0.28021
H          3.62357        3.68154        0.77865
H          1.16411        3.39862        1.03144
H          0.19783        2.78449       -1.29347
H         -1.54951        3.51396       -2.84541
H         -4.41538        1.23239       -0.98242
