41
omegacsd_CEJTIU_03.log	Energy: -611038.9634826
C         -6.61847       -1.61562       -0.10591
N         -6.06176       -0.34878        0.31886
C         -6.91795        0.81177        0.19911
C         -4.68469       -0.16177        0.18152
C         -3.81324       -1.24166       -0.03363
C         -2.43806       -1.07081       -0.13658
C         -1.87950        0.20262       -0.03572
C         -2.73300        1.28707        0.16387
C         -4.10486        1.11579        0.26589
N         -0.49595        0.47734       -0.13390
C          0.50312       -0.42174       -0.27846
O          0.40759       -1.63289       -0.36030
N          1.80584        0.14831       -0.34072
C          2.19624        1.45840       -0.27745
O          1.41988        2.39510       -0.14825
C          3.69329        1.71481       -0.43289
C          4.60857        0.56223       -0.09863
C          5.09114       -0.28425       -1.09870
C          5.90792       -1.36686       -0.78099
C          6.25251       -1.61376        0.54348
C          5.77729       -0.77482        1.54869
C          4.96049        0.30345        1.22889
H         -7.70013       -1.59830        0.04677
H         -6.41980       -1.84064       -1.16675
H         -6.21867       -2.43773        0.49741
H         -6.71094        1.53254        0.99772
H         -6.80924        1.33076       -0.76761
H         -7.95923        0.49972        0.30794
H         -4.20338       -2.24944       -0.12559
H         -1.79532       -1.92667       -0.29835
H         -2.31853        2.29106        0.23802
H         -4.72098        1.99569        0.41446
H         -0.20197        1.45008       -0.08160
H          2.52004       -0.56442       -0.42118
H          3.90757        2.58924        0.18849
H          3.83830        2.03190       -1.47322
H          4.83073       -0.09067       -2.13806
H          6.27632       -2.01555       -1.57131
H          6.89060       -2.45714        0.79351
H          6.04283       -0.96167        2.58587
H          4.59030        0.95626        2.01732
