40
omegapdb_2byh_13.log	Energy: -1016184.5321761
O         -6.75247       -2.45251        0.11321
C         -6.65738       -1.25897        0.32543
C         -7.87248       -0.44183        0.71506
C         -5.33760       -0.56459        0.20511
C         -4.21968       -1.31539       -0.16381
C         -2.96425       -0.74084       -0.29365
C         -2.81262        0.62956       -0.04950
C         -3.92687        1.39213        0.32104
C         -5.17332        0.80118        0.44694
N         -1.58693        1.30881       -0.15996
C         -0.35010        0.80413       -0.49511
O         -0.13609       -0.37807       -0.70742
C          0.70225        1.84489       -0.58583
C          0.54916        3.21300       -0.92347
N          1.69793        3.86178       -0.90903
N          2.59268        2.92883       -0.55081
C          2.06641        1.68970       -0.35908
C          2.93010        0.56179        0.03394
C          2.83169       -0.68376       -0.59751
C          3.69447       -1.71617       -0.28333
Cl         3.56018       -3.24379       -1.08899
C          4.68869       -1.53167        0.68812
O          5.51411       -2.56359        0.96178
C          4.78368       -0.30618        1.33901
C          3.91301        0.73007        1.02213
O          4.08603        1.89657        1.70794
H         -8.05774        0.35331       -0.01588
H         -7.72836        0.03263        1.69219
H         -8.73840       -1.10406        0.75741
H         -4.35639       -2.37709       -0.34814
H         -2.10530       -1.33481       -0.57430
H         -3.81253        2.45822        0.50994
H         -6.02002        1.41843        0.73606
H         -1.61323        2.28456        0.09712
H         -0.35487        3.73936       -1.20771
H          3.57470        3.16681       -0.54406
H          2.05375       -0.84235       -1.33523
H          6.13800       -2.29676        1.64927
H          5.52720       -0.14014        2.11440
H          3.28069        2.42905        1.64314
