25
omegapdb_1m5f_19.log	Energy: -499677.3995398
O          2.18048       -2.64547       -0.04459
C          1.27717       -1.82429        0.49961
O          0.40403       -2.21651        1.23067
C          1.46255       -0.37942        0.16120
N          2.55642       -0.00363       -0.44336
O          2.45887        1.34887       -0.59264
C          1.29068        1.77242       -0.06236
C          0.59952        0.71600        0.44155
C         -0.74668        0.67824        1.09789
C         -1.95027        0.67001        0.13780
N         -3.23963        0.72728        0.83139
C         -1.95817       -0.53658       -0.82585
O         -0.96562       -0.97954       -1.34679
O         -3.17750       -1.00815       -1.08175
C          1.01936        3.23266       -0.14469
H          2.79184       -2.12514       -0.59471
H         -0.79393       -0.21442        1.73015
H         -0.85967        1.55337        1.75116
H         -1.89255        1.55095       -0.51598
H         -3.20622        0.17702        1.68659
H         -3.48102        1.67693        1.09304
H         -3.78961       -0.48137       -0.52079
H          1.86065        3.80557        0.25642
H          0.86272        3.54316       -1.18278
H          0.12326        3.48063        0.43075
