46
omegacsd_CDBMPI10_04.log	Energy: -649538.9581041
O         -3.18353        2.02366       -0.80736
C         -2.52226        1.11321       -0.32995
N         -1.26696        1.30772        0.19112
C         -0.63342        0.40905        1.16587
C          0.84292        0.82254        1.29533
N          1.36659        1.27375        0.02227
C          0.76280        2.51338       -0.48711
C         -0.66221        2.62469        0.07845
C          1.59263        3.74706       -0.14497
C          2.44238        0.76276       -0.64939
O          2.95239        1.36518       -1.58586
C          2.99097       -0.57846       -0.23828
C          2.18406       -1.70120       -0.04727
C          2.75635       -2.93650        0.24071
C          4.13879       -3.05521        0.34668
C          4.94901       -1.94069        0.14272
C          4.37783       -0.71139       -0.16300
C         -1.33087        0.43833        2.52408
C         -3.06545       -0.29088       -0.33813
C         -2.36011       -1.34896       -0.91387
C         -2.93485       -2.61372       -0.98845
C         -4.21169       -2.82947       -0.47703
C         -4.92236       -1.77343        0.08756
C         -4.35707       -0.50418        0.14230
H         -0.66971       -0.60981        0.77111
H          0.93394        1.63753        2.02888
H          1.43332       -0.01035        1.67828
H          0.71147        2.40500       -1.57480
H         -1.29054        3.22792       -0.57739
H         -0.64734        3.12284        1.05969
H          1.09403        4.65361       -0.50662
H          2.57541        3.67658       -0.61557
H          1.72217        3.84238        0.94041
H          1.10386       -1.61701       -0.15030
H          2.12141       -3.80816        0.37662
H          4.58615       -4.01887        0.57622
H          6.02967       -2.03342        0.21185
H          4.99817        0.15868       -0.35903
H         -0.79066       -0.18351        3.24745
H         -1.37519        1.46098        2.91658
H         -2.35289        0.05505        2.44350
H         -1.37017       -1.17251       -1.33115
H         -2.38788       -3.43050       -1.45225
H         -4.65855       -3.81889       -0.53040
H         -5.92480       -1.93633        0.47465
H         -4.91476        0.33637        0.54686
