24
omegapdb_1gs5_16.log	Energy: -441841.5993941
C         -0.37908       -0.67782       -0.34168
C         -1.78158       -1.27120       -0.25318
O         -2.78758       -0.73490       -0.64742
O         -1.77113       -2.50876        0.27345
C          0.46586       -0.99250        0.90702
C          1.71503       -0.12882        1.01488
C          2.63467       -0.22129       -0.18738
O          2.48940       -0.97827       -1.11252
O          3.69239        0.62077       -0.16865
N         -0.46021        0.73103       -0.67511
C         -1.08267        1.61184        0.17620
O         -1.25965        1.35497        1.35510
C         -1.51369        2.91734       -0.45504
H          0.11545       -1.16428       -1.18879
H         -2.69343       -2.81425        0.26278
H          0.74340       -2.04945        0.86070
H         -0.13275       -0.83818        1.80637
H          2.28962       -0.42839        1.90218
H          1.42808        0.91875        1.16865
H          3.66760        1.16300        0.63207
H         -0.53997        0.93417       -1.66104
H         -1.61772        3.67250        0.32497
H         -2.48964        2.76921       -0.93031
H         -0.80793        3.26399       -1.21636
