41
omegacsd_CEJTIU_09.log	Energy: -611028.3049563
C         -5.11848       -1.11381        0.85084
N         -3.87257       -1.43757        0.18949
C         -3.82740       -2.63431       -0.62189
C         -2.97433       -0.41423       -0.08155
C         -3.12256        0.86206        0.49547
C         -2.19650        1.86566        0.25828
C         -1.11462        1.65598       -0.59018
C         -0.97006        0.40970       -1.19097
C         -1.87418       -0.61398       -0.93643
N         -0.19961        2.71759       -0.85664
C          1.16161        2.64735       -0.84933
O          1.87579        3.39599       -1.48915
N          1.72894        1.61096       -0.07448
C          1.38863        1.25164        1.22064
O          0.46545        1.73677        1.83611
C          2.30950        0.19383        1.82540
C          2.68793       -0.92105        0.87747
C          4.01921       -1.16821        0.54648
C          4.35536       -2.19273       -0.33725
C          3.35859       -2.97903       -0.90177
C          2.02379       -2.73735       -0.57905
C          1.69126       -1.71764        0.30323
H         -5.70205       -2.02799        0.97828
H         -4.93602       -0.70099        1.84929
H         -5.72698       -0.38972        0.28617
H         -3.99021       -2.43323       -1.69277
H         -4.59968       -3.32712       -0.28108
H         -2.86228       -3.14294       -0.51396
H         -3.95476        1.07359        1.15741
H         -2.30314        2.82837        0.75033
H         -0.13637        0.23056       -1.86591
H         -1.72468       -1.56848       -1.42963
H         -0.53277        3.50082       -1.40194
H          2.65785        1.36335       -0.39018
H          1.78082       -0.18938        2.70275
H          3.21027        0.70272        2.19237
H          4.80490       -0.55776        0.98876
H          5.39898       -2.37339       -0.58177
H          3.61788       -3.77707       -1.59264
H          1.23851       -3.34807       -1.01815
H          0.64595       -1.52529        0.54200
