61
omegapdb_1v2k_19.log	Energy: -1425427.4309046
N         -9.82808        1.87097       -0.47630
C         -8.94823        1.84205       -1.48281
C         -7.73301        1.18011       -1.44838
C         -7.36181        0.47346       -0.29199
C         -8.28008        0.49772        0.76584
C         -9.46998        1.20267        0.61801
N         -6.12423       -0.17583       -0.21595
C         -5.72667       -0.73523        1.06871
C         -4.21573       -0.96460        1.11371
C         -3.78012       -1.86486       -0.04704
C         -4.24624       -1.27132       -1.38382
C         -5.75248       -1.03225       -1.34244
C         -2.32401       -2.33721       -0.05670
O         -2.09617       -3.53400       -0.18548
N         -1.28515       -1.45440        0.08140
C          0.05798       -2.03240        0.11410
C          1.01787       -1.10430        0.83982
N          1.10919        0.17832        0.12365
C         -0.11393        0.57461       -0.59034
C         -1.35827        0.00454        0.08221
S          1.92264        1.38214        0.95468
O          1.72778        2.60785        0.19577
O          1.59673        1.33106        2.37497
C          3.61420        0.86406        0.78669
C          4.28292        1.16186       -0.37036
C          5.62990        0.75289       -0.52866
C          6.26429        0.04088        0.52291
C          5.53746       -0.23528        1.71236
C          4.23750        0.16973        1.85053
C          7.61382       -0.37305        0.36370
C          8.28044       -0.08276       -0.79339
C          7.66041        0.62898       -1.85042
C          6.36351        1.03648       -1.71322
Cl         9.93036       -0.58838       -0.99477
H         -9.23067        2.39547       -2.37766
H         -7.06752        1.24530       -2.30341
H         -8.09888       -0.03576        1.69218
H        -10.18473        1.21688        1.44035
H         -5.99778       -0.02695        1.85595
H         -6.25661       -1.68415        1.27405
H         -3.72719        0.01348        1.07378
H         -3.95194       -1.42530        2.07305
H         -4.31350       -2.81682        0.06778
H         -4.00990       -1.96294       -2.20063
H         -3.74754       -0.31884       -1.59989
H         -6.27273       -2.00425       -1.26328
H         -6.07937       -0.56956       -2.27469
H          0.41801       -2.23914       -0.90276
H          0.00369       -2.99074        0.63359
H          0.67815       -0.95248        1.87301
H          2.01161       -1.56521        0.87297
H         -0.05205        0.20565       -1.62097
H         -0.16577        1.66413       -0.63117
H         -1.43390        0.40223        1.10421
H         -2.23598        0.33904       -0.47285
H          3.78568        1.71741       -1.16180
H          6.03386       -0.76710        2.52044
H          3.67967       -0.01308        2.76392
H          8.10920       -0.91710        1.16296
H          8.22513        0.84043       -2.75285
H          5.87560        1.58414       -2.51591
