44
omegacsd_CUHNEY10_18.log	Energy: -1049272.9164289
Cl        -3.23933       -4.88833       -0.17090
C         -2.77994       -3.22076       -0.04317
C         -3.18228       -2.30878       -1.01064
N         -2.84840       -1.02290       -0.97184
C         -2.12395       -0.59149        0.05396
N         -1.80563        0.78372        0.06277
C         -2.60854        1.79363       -0.50005
O         -3.69335        1.67869       -1.00276
C         -1.82995        3.05750       -0.27000
N         -2.16185        4.28420       -0.65250
C         -1.26214        5.20641       -0.30698
C         -0.08560        4.90138        0.39038
N          0.23131        3.66198        0.77387
C         -0.67563        2.76060        0.42578
C         -0.60542        1.28443        0.71268
O          0.55798        0.72502        0.12996
C          1.40099        0.05498        0.97691
O          1.14214       -0.17118        2.14611
N          2.52771       -0.32150        0.34147
C          3.51048       -1.11778        1.07346
C          4.23023       -2.02720        0.08137
N          4.92344       -1.29527       -0.98231
C          4.32679        0.00709       -1.25616
C          2.81831       -0.01447       -1.05986
C          6.35176       -1.17306       -0.77255
C         -1.66365       -1.43187        1.07471
C         -1.99678       -2.77554        1.01404
H         -3.78547       -2.63306       -1.85619
H         -1.47579        6.23382       -0.59246
H          0.61922        5.68934        0.64543
H         -0.58968        1.07336        1.78571
H          4.22259       -0.46171        1.59301
H          2.98502       -1.70010        1.83369
H          3.49185       -2.70923       -0.36184
H          4.95363       -2.64908        0.61850
H          4.55217        0.29688       -2.28993
H          4.74682        0.79472       -0.60096
H          2.35943       -0.75903       -1.72348
H          2.39628        0.96096       -1.30646
H          6.61577       -0.57320        0.12021
H          6.80267       -2.16496       -0.66955
H          6.80642       -0.68939       -1.64431
H         -1.04096       -1.06299        1.88354
H         -1.65970       -3.46704        1.78040
