50
omegapdb_1xom_22.log	Energy: -710679.3710408
O          6.82587        0.52901       -0.36194
C          5.80594       -0.32919       -0.12411
O          5.86097       -1.45490       -0.54211
C          4.61048        0.26523        0.61523
C          3.74215        1.04683       -0.40614
C          2.75290        0.10365       -1.09091
C          1.69588       -0.44590       -0.08660
C          2.30694       -0.47691        1.34806
C          3.79019       -0.83420        1.31392
C          1.39359       -1.83879       -0.47898
N          1.16654       -2.93679       -0.76552
C          0.38520        0.34936       -0.05592
C          0.31112        1.67976       -0.44816
C         -0.87962        2.40171       -0.33594
C         -2.02703        1.79762        0.16684
O         -3.23256        2.40368        0.29878
C         -3.32728        3.75573       -0.09359
C         -1.96123        0.45001        0.57211
C         -0.77071       -0.24671        0.46340
O         -3.07201       -0.14164        1.10662
C         -3.75517       -1.04296        0.23689
C         -4.51903       -0.37168       -0.90449
C         -5.49115       -1.47043       -1.35119
C         -5.83611       -2.26304       -0.06008
C         -4.84630       -1.76996        1.01691
H          6.64606        1.38171        0.05734
H          4.98636        0.97641        1.36437
H          4.37733        1.53166       -1.15736
H          3.20847        1.84945        0.11602
H          3.31730       -0.73521       -1.51317
H          2.24740        0.59104       -1.92966
H          1.74542       -1.18501        1.96562
H          2.16044        0.51241        1.79809
H          4.16728       -0.99319        2.32945
H          3.93493       -1.77720        0.77449
H          1.17958        2.18943       -0.85584
H         -0.89761        3.43753       -0.65851
H         -2.65735        4.39299        0.49820
H         -4.36122        4.05017        0.09196
H         -3.09968        3.88328       -1.16003
H         -0.76117       -1.28567        0.78699
H         -3.02976       -1.76301       -0.17421
H         -3.86715       -0.01230       -1.70794
H         -5.05217        0.49197       -0.48971
H         -5.00015       -2.12923       -2.07686
H         -6.37930       -1.06311       -1.84366
H         -6.87044       -2.09008        0.25281
H         -5.73588       -3.33994       -0.22877
H         -4.44928       -2.57229        1.64558
H         -5.31784       -1.03448        1.67899
