45
omegacsd_SEYMIS_11.log	Energy: -753202.1797260
O         -4.12275        2.64492        0.48898
N         -4.71943        1.42634        0.25584
C         -3.75778        0.53694        0.23159
C         -2.48201        1.17054        0.43574
C         -1.11321        0.57696        0.50197
O         -0.81768       -0.35516        1.23130
N         -0.21193        1.20673       -0.31290
C          1.14819        0.86957       -0.44439
C          2.00229        1.46897       -1.35005
N          3.24346        0.92420       -1.21424
C          4.38378        1.32583       -2.02128
C          3.18995       -0.02649       -0.21907
C          1.89971       -0.08098        0.27542
C          4.29602       -0.86213        0.26390
O          4.16974       -1.68926        1.13881
O          5.46561       -0.61582       -0.36587
C          6.58889       -1.39821        0.07749
C          7.19220       -0.82540        1.34581
C         -2.79828        2.48669        0.59308
C         -2.00781        3.71477        0.88670
C         -4.10138       -0.87586       -0.04631
C         -5.19542       -1.15287       -0.87367
C         -5.56011       -2.46690       -1.13543
C         -4.83644       -3.51672       -0.57469
C         -3.75039       -3.24467        0.25062
C         -3.38036       -1.93025        0.51908
H         -0.58131        1.87124       -0.97599
H          1.81527        2.24271       -2.08394
H          4.04585        2.09042       -2.72390
H          5.17762        1.73490       -1.39352
H          4.78286        0.47486       -2.57588
H          1.55146       -0.73715        1.05712
H          6.26159       -2.43008        0.22684
H          7.29369       -1.35839       -0.75676
H          7.47607        0.22164        1.19992
H          8.08861       -1.39073        1.62175
H          6.47525       -0.88992        2.16822
H         -0.95581        3.46482        1.03886
H         -2.38948        4.19575        1.79220
H         -2.08902        4.43643        0.06710
H         -5.75338       -0.32737       -1.30643
H         -6.40973       -2.67256       -1.78152
H         -5.11957       -4.54582       -0.78159
H         -3.18573       -4.06003        0.69523
H         -2.53552       -1.71775        1.16675
