36
omegapdb_1qxw_12.log	Energy: -410435.1415408
C         -5.15497       -0.59186        0.06650
C         -4.73937        0.54653       -0.83150
C         -3.94605        0.21532        0.40683
N         -2.64405       -0.39307        0.33252
C         -1.59609        0.49918       -0.14553
C         -0.25946       -0.22459        0.02751
C          0.96985        0.66867       -0.24843
N          1.08999        1.77618        0.69617
C          2.26624       -0.15022       -0.24000
C          3.49331        0.67596       -0.62197
C          4.78898       -0.13715       -0.68470
C          5.22560       -0.71057        0.66312
O         -0.15205       -0.70069        1.34129
O         -0.32902       -1.31236       -0.88508
H         -6.04453       -0.47750        0.67871
H         -4.99741       -1.60399       -0.29947
H         -5.34528        1.44832       -0.84215
H         -4.29806        0.28904       -1.79165
H         -4.03648        0.90722        1.24286
H         -2.66222       -1.21006       -0.27280
H         -1.72253        0.80409       -1.19632
H         -1.60535        1.40143        0.47576
H          0.83786        1.09367       -1.25329
H          0.36499        2.46874        0.53748
H          0.94825        1.40711        1.63409
H          2.39261       -0.58603        0.76023
H          2.16894       -0.98512       -0.94730
H          3.60038        1.50064        0.09204
H          3.31405        1.13949       -1.60268
H          5.58862        0.50642       -1.07379
H          4.67457       -0.95430       -1.41134
H          5.32205        0.08484        1.41205
H          6.19449       -1.21537        0.58362
H          4.50483       -1.44077        1.04763
H         -1.06692       -0.93603        1.58867
H          0.30591       -1.96677       -0.56394
