39
omegacsd_FIBREN_16.log	Energy: -667543.1855544
N         -2.25786       -1.52519        1.64913
C         -0.95744       -1.28522        1.82681
N         -0.15278       -0.53634        1.04914
C         -0.65150        0.03596       -0.05393
C         -2.02056       -0.14130       -0.33054
C         -2.71639       -0.91922        0.56358
O         -4.00476       -0.97513        0.12860
C         -4.00757       -0.21598       -1.01561
N         -2.87078        0.29987       -1.33978
C         -5.30885       -0.08862       -1.71937
N          0.14738        0.75569       -0.87433
C          1.56533        1.01841       -0.64802
C          1.78309        1.88554        0.59354
C          1.17054        3.26259        0.40293
O          0.73427        3.67619       -0.63955
O          1.15646        4.04605        1.50226
C          2.40289       -0.25451       -0.69130
C          2.94417       -0.85353        0.44484
C          3.71494       -2.00789        0.33839
C          3.94684       -2.58369       -0.90630
C          3.40443       -1.99759       -2.04640
C          2.64228       -0.84038       -1.93549
C         -0.30185       -1.90447        3.02914
H         -6.05592        0.37133       -1.06519
H         -5.68354       -1.07257       -2.01775
H         -5.17230        0.53179       -2.60590
H         -0.32176        1.32895       -1.56043
H          1.86177        1.62921       -1.50637
H          2.85740        2.01066        0.78468
H          1.34386        1.39823        1.47178
H          1.52334        3.56429        2.25666
H          2.74749       -0.43310        1.42675
H          4.13021       -2.46209        1.23465
H          4.54633       -3.48677       -0.98794
H          3.57927       -2.43913       -3.02416
H          2.22030       -0.38337       -2.82910
H          0.60069       -2.44386        2.72552
H         -0.99297       -2.58510        3.52869
H          0.00422       -1.12432        3.73488
