46
omegacsd_CDBMPI10_03.log	Energy: -649538.6183328
O          2.43665        1.01877       -2.00641
C          2.28049        0.63831       -0.85338
N          1.35448        1.22128       -0.02747
C          0.61441        2.37630       -0.56533
C         -0.72626        2.49783        0.15937
N         -1.35321        1.18995        0.25650
C         -0.62680        0.19148        1.05457
C          0.83525        0.64875        1.20059
C         -1.24882       -0.01420        2.43476
C         -2.66310        1.06439       -0.13689
O         -3.34493        2.02829       -0.45528
C         -3.24950       -0.31980       -0.21114
C         -2.62610       -1.35052       -0.91533
C         -3.24844       -2.58896       -1.03849
C         -4.49103       -2.80571       -0.45015
C         -5.12237       -1.77473        0.24161
C         -4.51063       -0.53102        0.34708
C          1.43812        3.65451       -0.45664
C          3.15224       -0.46220       -0.30874
C          3.82215       -0.35111        0.91086
C          4.69524       -1.35236        1.32464
C          4.89816       -2.47302        0.52472
C          4.24331       -2.58056       -0.69991
C          3.38557       -1.57161       -1.12168
H          0.42093        2.16283       -1.62113
H         -0.59702        2.94552        1.15627
H         -1.39877        3.14909       -0.39952
H         -0.62216       -0.76030        0.51530
H          1.43339       -0.21370        1.49339
H          0.91424        1.38556        2.01226
H         -2.25519       -0.43511        2.35269
H         -0.64079       -0.70359        3.03210
H         -1.31567        0.93985        2.97074
H         -1.66534       -1.17419       -1.39421
H         -2.76412       -3.38397       -1.59949
H         -4.97391       -3.77524       -0.54160
H         -6.09954       -1.93670        0.68901
H         -5.00710        0.29326        0.85223
H          2.36774        3.54819       -1.02186
H          1.68336        3.87238        0.58993
H          0.88254        4.50644       -0.86427
H          3.67718        0.53289        1.52852
H          5.22149       -1.25370        2.27048
H          5.57672       -3.25742        0.85002
H          4.41149       -3.44776       -1.33314
H          2.89658       -1.62403       -2.09048
