24
omegapdb_1gs5_13.log	Energy: -441842.5679123
C         -0.54129        0.28999        0.77607
C         -1.02789        1.58286        0.11073
O         -2.16368        1.98347        0.16730
O         -0.04301        2.26825       -0.49345
C          0.70051       -0.34727        0.13248
C          2.00869        0.32395        0.56206
C          3.23074       -0.33593       -0.02813
O          4.14995        0.23276       -0.56452
O          3.20983       -1.67801        0.12705
N         -1.65435       -0.63654        0.87565
C         -2.31105       -1.00762       -0.27372
O         -1.84294       -0.78724       -1.37693
C         -3.64258       -1.69300       -0.06514
H         -0.28574        0.57133        1.80732
H         -0.45624        3.06710       -0.86176
H          0.71933       -1.39724        0.43816
H          0.59247       -0.33104       -0.95460
H          2.11176        0.27014        1.65516
H          2.04031        1.37467        0.27043
H          4.03127       -2.00386       -0.27634
H         -2.21377       -0.57759        1.71372
H         -4.42972       -0.93129       -0.05135
H         -3.83012       -2.36368       -0.90487
H         -3.68299       -2.25458        0.87291
