45
omegacsd_SEYMIS_00.log	Energy: -753209.8315137
O          5.24714       -0.90999       -0.26797
N          4.85452        0.40831       -0.19309
C          3.55820        0.39128       -0.01471
C          3.06088       -0.95659        0.03528
C          1.68899       -1.52350        0.14072
O          1.49656       -2.69511        0.44686
N          0.67307       -0.66878       -0.15803
C         -0.69315       -0.98884       -0.10098
C         -1.27792       -2.21666        0.15748
N         -2.62982       -2.06318        0.11100
C         -3.57634       -3.14388        0.33809
C         -2.92222       -0.75087       -0.17409
C         -1.73094       -0.06061       -0.30876
C         -4.29437       -0.26050       -0.30043
O         -5.29571       -0.94201       -0.19391
O         -4.31585        1.05986       -0.55972
C         -5.61776        1.64806       -0.71166
C         -6.25477        1.94051        0.63388
C          4.18870       -1.71298       -0.12527
C          4.44822       -3.17495       -0.18578
C          2.85063        1.68777        0.11012
C          1.91426        1.90454        1.12633
C          1.27508        3.13499        1.23854
C          1.57038        4.15946        0.34337
C          2.51075        3.95278       -0.66228
C          3.14831        2.72300       -0.78022
H          0.89864        0.27843       -0.42469
H         -0.81722       -3.16802        0.37112
H         -4.21998       -2.91900        1.19035
H         -4.20894       -3.29180       -0.53850
H         -3.00399       -4.05169        0.53887
H         -1.63828        0.99478       -0.53032
H         -6.24318        0.97641       -1.30581
H         -5.43527        2.56554       -1.27628
H         -5.60387        2.57944        1.23874
H         -7.20985        2.45689        0.49032
H         -6.44346        1.00947        1.17445
H          5.10943       -3.47091        0.63497
H          4.94337       -3.43264       -1.12710
H          3.50337       -3.71020       -0.09477
H          1.69250        1.11053        1.83545
H          0.55002        3.29412        2.03213
H          1.07025        5.12027        0.43238
H          2.74761        4.75102       -1.36060
H          3.88565        2.55303       -1.55966
