24
omegapdb_1gs5_17.log	Energy: -441839.7091015
C          0.28767       -0.08947        0.20958
C          0.47513        1.41189        0.01239
O          1.30729        2.08491        0.56825
O         -0.44254        1.93162       -0.82764
C         -0.74826       -0.37451        1.30603
C         -2.16127        0.09812        0.97945
C         -2.78584       -0.69132       -0.16146
O         -2.32374       -1.70324       -0.61593
O         -3.95194       -0.20111       -0.63408
N          1.54657       -0.69869        0.56871
C          2.57256       -0.65479       -0.34505
O          2.38236       -0.30517       -1.49609
C          3.92883       -1.06376        0.18504
H         -0.04795       -0.52283       -0.73552
H         -0.23810        2.87948       -0.89694
H         -0.41906        0.09594        2.24194
H         -0.76591       -1.45793        1.45900
H         -2.80433       -0.03478        1.85960
H         -2.17842        1.16644        0.73377
H         -4.17136        0.62804       -0.18733
H          1.79775       -0.68862        1.54752
H          4.42808       -0.18273        0.60322
H          4.53160       -1.43796       -0.64356
H          3.85729       -1.82735        0.96525
