45
omegacsd_SEYMIS_07.log	Energy: -753204.5943636
O          4.17590       -2.46691       -0.63596
N          4.67678       -1.22291       -0.32660
C          3.64884       -0.41502       -0.24061
C          2.42469       -1.13303       -0.48160
C          1.01241       -0.64872       -0.50817
O          0.64254        0.31180       -1.16414
N          0.16471       -1.41139        0.24735
C         -1.22009       -1.20113        0.38971
C         -2.02945       -1.95815        1.21741
N         -3.30650       -1.50143        1.11728
C         -4.43338       -2.05814        1.84927
C         -3.32445       -0.45487        0.22659
C         -2.03963       -0.24481       -0.24289
C         -4.55602        0.26894       -0.09828
O         -5.65092        0.02901        0.37417
O         -4.32538        1.24039       -0.99519
C         -5.46240        2.03524       -1.37068
C         -5.73374        3.12045       -0.34592
C          2.84261       -2.40762       -0.72445
C          2.14780       -3.67478       -1.08636
C          3.88693        0.99853        0.12990
C          3.07307        2.02933       -0.34557
C          3.34493        3.34694        0.01048
C          4.42485        3.64640        0.83418
C          5.24130        2.62082        1.30504
C          4.97431        1.30352        0.95643
H          0.58524       -2.09484        0.85879
H         -1.78613       -2.78674        1.87036
H         -4.06296       -2.88890        2.45397
H         -4.88236       -1.30350        2.49695
H         -5.19932       -2.41688        1.16021
H         -1.73109        0.50896       -0.94898
H         -5.18822        2.45775       -2.34000
H         -6.32862        1.37962       -1.49214
H         -6.54993        3.76468       -0.68967
H         -6.02348        2.67619        0.61007
H         -4.84377        3.73937       -0.19684
H          2.26482       -4.42336       -0.29552
H          2.57978       -4.08897       -2.00211
H          1.08353       -3.49346       -1.24991
H          2.23355        1.79604       -0.99285
H          2.70717        4.14352       -0.36394
H          4.63162        4.67778        1.10901
H          6.08690        2.84760        1.94931
H          5.60558        0.49741        1.31928
