46
omegacsd_CDBMPI10_11.log	Energy: -649535.0598960
O         -2.60168        2.31015        0.80844
C         -2.53671        1.18521        0.33409
N         -1.33695        0.60841       -0.02054
C         -1.11153       -0.84497        0.01205
C          0.03303       -1.16521       -0.95121
N          1.24777       -0.39506       -0.69147
C          0.97830        1.05465       -0.78839
C         -0.14615        1.42060        0.19027
C          2.13971        2.01795       -0.57523
C          2.23203       -1.04429        0.02737
O          2.02663       -2.12543        0.56427
C          3.62851       -0.49255        0.04538
C          4.30192       -0.20181       -1.14059
C          5.63712        0.18787       -1.10782
C          6.29974        0.29946        0.11132
C          5.63362       -0.00564        1.29601
C          4.30735       -0.42085        1.26122
C         -0.88162       -1.35510        1.43538
C         -3.79970        0.41279        0.06674
C         -4.04718       -0.20937       -1.15819
C         -5.26768       -0.83445       -1.39111
C         -6.24319       -0.84865       -0.39787
C         -6.00424       -0.21931        0.82106
C         -4.79160        0.42196        1.04694
H         -2.00499       -1.33237       -0.38403
H         -0.29307       -0.92571       -1.97235
H          0.28068       -2.22546       -0.89545
H          0.58956        1.21258       -1.80457
H         -0.43536        2.46390        0.05358
H          0.22659        1.32096        1.22173
H          2.92742        1.89737       -1.31959
H          2.58918        1.91689        0.41693
H          1.74370        3.03497       -0.66496
H          3.77872       -0.29248       -2.08989
H          6.16096        0.40314       -2.03557
H          7.34019        0.61310        0.13789
H          6.15296        0.06789        2.24788
H          3.78798       -0.69715        2.17506
H         -1.75795       -1.13255        2.05480
H         -0.00118       -0.90041        1.89796
H         -0.71830       -2.43646        1.43009
H         -3.28777       -0.18477       -1.93709
H         -5.45860       -1.30791       -2.35064
H         -7.19459       -1.34274       -0.57754
H         -6.76880       -0.21928        1.59341
H         -4.60312        0.94551        1.98021
