61
omegapdb_1v2k_00.log	Energy: -1425435.6211456
N         -8.86430        2.97526        0.78984
C         -8.19209        2.27610        1.70547
C         -7.32620        1.22766        1.43368
C         -7.11338        0.82270        0.10125
C         -7.81722        1.56420       -0.86815
C         -8.65487        2.59471       -0.47250
N         -6.30371       -0.25365       -0.23053
C         -5.74953       -0.36818       -1.57795
C         -4.48484        0.48508       -1.72666
C         -3.43329        0.18978       -0.64096
C         -4.08670        0.13705        0.76051
C         -5.33625       -0.74929        0.74091
C         -2.70194       -1.12461       -0.92932
O         -3.17131       -1.95555       -1.69884
N         -1.52904       -1.36667       -0.26035
C         -0.77358       -0.42942        0.55954
C          0.58136       -0.14136       -0.09532
N          1.32045       -1.36948       -0.40707
C          0.52279       -2.34795       -1.16201
C         -0.82353       -2.62122       -0.49674
S          2.27512       -1.96803        0.82775
O          2.69343       -3.29686        0.41154
O          1.63735       -1.78068        2.12801
C          3.66276       -0.85483        0.77542
C          4.30799       -0.63219       -0.41224
C          5.44964        0.20496       -0.44706
C          5.91029        0.79574        0.75884
C          5.21459        0.53453        1.96964
C          4.11111       -0.27512        1.98541
C          7.05516        1.63641        0.72479
C          7.69479        1.86370       -0.46116
C          7.24599        1.28032       -1.67248
C          6.14642        0.46985       -1.65820
Cl         9.09549        2.89025       -0.50917
H         -8.34929        2.57396        2.74202
H         -6.83303        0.74091        2.26685
H         -7.73159        1.34904       -1.92657
H         -9.19570        3.15603       -1.23422
H         -6.49597       -0.09044       -2.32286
H         -5.50207       -1.41823       -1.74952
H         -4.76415        1.54456       -1.65196
H         -4.04804        0.32522       -2.71774
H         -2.70404        1.00836       -0.65822
H         -3.37577       -0.22995        1.51097
H         -4.37977        1.15222        1.05793
H         -5.78831       -0.82616        1.73111
H         -5.06970       -1.77024        0.44183
H         -0.60672       -0.87125        1.54963
H         -1.32169        0.50337        0.69400
H          0.42943        0.38900       -1.04378
H          1.19353        0.49701        0.54949
H          0.36125       -1.91919       -2.15848
H          1.10620       -3.26401       -1.26843
H         -0.66864       -3.13077        0.46418
H         -1.45215       -3.24522       -1.13249
H          3.94251       -1.08651       -1.32997
H          5.57236        0.98981        2.88986
H          3.56795       -0.48131        2.90225
H          7.41705        2.09305        1.64166
H          7.78293        1.48582       -2.59300
H          5.79184        0.01426       -2.57962
