57
omegacsd_SPIRIL_18.log	Energy: -797190.7996272
C         -1.69356       -0.34125        0.42573
C         -2.82859       -1.05209       -0.32359
C         -3.27939       -2.30807        0.44462
O         -2.55933       -3.12705        0.98115
N         -4.64243       -2.34869        0.35835
C         -5.14156       -1.30417       -0.52845
N         -4.09513       -0.29138       -0.51760
C         -4.34349        0.82187        0.35208
C         -4.95195        0.69114        1.60380
C         -5.17842        1.81435        2.39387
C         -4.78583        3.07490        1.95382
C         -4.17214        3.20851        0.71143
C         -3.96183        2.08996       -0.08788
C         -2.30562       -1.51954       -1.70790
C         -0.81100       -1.83006       -1.63011
N         -0.00379       -0.63824       -1.34362
C          0.57391       -0.03096       -2.53082
C          1.62505        1.03212       -2.20088
C          2.71806        0.49939       -1.30838
C          3.84029        1.14505       -0.96795
C          4.84093        0.50968       -0.06462
C          4.44794       -0.36887        0.95333
C          5.37830       -0.98086        1.78343
C          6.72262       -0.70003        1.59870
C          7.15485        0.17607        0.61775
C          6.20778        0.77788       -0.20375
F          7.63105       -1.28550        2.40204
C          4.16716        2.52448       -1.48851
C         -0.71079        0.34153       -0.51840
H         -1.16173       -1.10924        0.99905
H         -2.08623        0.37881        1.14772
H         -5.12913       -3.21691        0.52741
H         -5.28735       -1.69038       -1.54800
H         -6.08714       -0.88670       -0.17412
H         -5.23455       -0.29508        1.96577
H         -5.65378        1.69959        3.36482
H         -4.95944        3.94937        2.57530
H         -3.86850        4.18984        0.35557
H         -3.50736        2.18212       -1.07107
H         -2.49298       -0.70942       -2.42283
H         -2.86272       -2.39652       -2.06195
H         -0.46310       -2.26480       -2.57271
H         -0.64863       -2.58659       -0.85162
H          1.05729       -0.82645       -3.11130
H         -0.19902        0.42546       -3.18314
H          2.04017        1.39845       -3.14918
H          1.13988        1.90206       -1.73541
H          2.54542       -0.50422       -0.92222
H          3.39030       -0.56181        1.11180
H          5.07524       -1.65898        2.57510
H          8.21604        0.37495        0.50471
H          6.54782        1.46225       -0.97681
H          4.57465        3.15880       -0.69348
H          4.91887        2.48478       -2.28778
H          3.28332        3.02007       -1.89866
H         -1.25728        1.07405       -1.14597
H          0.01834        0.91440        0.06759
