66
omegapdb_1z1r_11.log	Energy: -1302684.1370096
C          0.43122       -2.01995        0.01499
C          1.47242       -3.01404        0.56103
C          2.87232       -2.48379        0.36540
C          3.60235       -1.97699        1.44150
C          4.81020       -1.31399        1.24811
C          5.29177       -1.12910       -0.04551
C          4.61593       -1.69478       -1.12457
C          3.41817       -2.36672       -0.91531
O          6.41947       -0.39104       -0.29833
C          6.34850        0.98738        0.07042
C          5.30590        1.79494       -0.70510
C          3.88026        1.72241       -0.15605
C          2.92747        2.60248       -0.94949
O          3.28068        3.24482       -1.92094
N          1.62021        2.66927       -0.50731
C          1.00481        1.74196        0.41466
C          0.62926        0.41928       -0.27811
O          0.24416        0.40944       -1.43978
N          0.70106       -0.68080        0.50807
C         -0.26981        2.36465        0.99305
C         -0.82801        1.53205        2.13894
O         -0.10422        0.90445        2.90038
N         -2.17959        1.53456        2.25781
C         -0.99933       -2.44673        0.36048
O         -1.18987       -3.74827       -0.13882
C         -2.02513       -1.48448       -0.23058
N         -3.36702       -1.93704        0.14975
S         -4.66439       -1.29936       -0.68325
O         -4.43953       -1.57445       -2.08788
O         -5.84329       -1.75318        0.03162
C         -4.55346        0.46947       -0.46404
C         -5.32094        1.07605        0.52649
C         -5.22339        2.45257        0.71282
C         -4.36204        3.20556       -0.08520
C         -3.60077        2.58600       -1.07630
C         -3.69599        1.21130       -1.27435
H          0.51517       -1.96703       -1.07582
H          1.31795       -3.97242        0.05605
H          1.28289       -3.18544        1.62984
H          3.21096       -2.08641        2.45210
H          5.36125       -0.91108        2.09400
H          5.02391       -1.56282       -2.12259
H          2.87844       -2.77177       -1.76963
H          7.34840        1.36969       -0.15057
H          6.18857        1.08430        1.15496
H          5.31907        1.47781       -1.75332
H          5.61805        2.84562       -0.70781
H          3.86354        2.02905        0.89964
H          3.49507        0.69587       -0.17898
H          1.00941        3.04160       -1.22454
H          1.68761        1.55298        1.24686
H          0.95065       -0.55221        1.48121
H         -0.02695        3.35997        1.38429
H         -1.01788        2.49006        0.19966
H         -2.77736        2.09705        1.66851
H         -2.58086        1.09978        3.07553
H         -1.10126       -2.43219        1.46408
H         -2.14664       -3.89563       -0.18689
H         -1.95548       -1.51485       -1.32176
H         -1.83535       -0.45936        0.10794
H         -3.55026       -1.88485        1.14913
H         -6.00209        0.47189        1.11913
H         -5.83233        2.94026        1.46938
H         -4.29667        4.28173        0.05403
H         -2.94561        3.17605       -1.71170
H         -3.12407        0.72297       -2.05851
