50
omegapdb_1xom_11.log	Energy: -710688.1331124
O         -6.46945       -0.79614       -0.92597
C         -5.71185       -0.13532       -0.02718
O         -6.03790       -0.02262        1.13094
C         -4.44216        0.39638       -0.65666
C         -3.62799        1.22866        0.34732
C         -2.65670        0.34592        1.13014
C         -1.57450       -0.29722        0.20923
C         -2.13184       -0.43204       -1.24079
C         -3.61609       -0.78377       -1.23253
C         -1.31846       -1.66189        0.71715
N         -1.14308       -2.74213        1.09418
C         -0.24935        0.47137        0.16333
C         -0.16922        1.82893        0.44422
C          1.03856        2.52013        0.32047
C          2.19154        1.86086       -0.08917
O          3.40665        2.44672       -0.25168
C          3.50493        3.83012        0.01138
C          2.12493        0.48050       -0.36881
C          0.91779       -0.18535       -0.24519
O          3.21861       -0.20088       -0.81726
C          4.27413       -0.41831        0.14054
C          5.35991       -1.17919       -0.60792
C          4.82242       -2.62041       -0.69092
C          3.86899       -2.78233        0.52314
C          3.83916       -1.40719        1.22056
H         -7.24258       -1.12484       -0.43789
H         -4.75504        1.03536       -1.49218
H         -3.08273        2.01219       -0.19180
H         -4.30891        1.72632        1.04339
H         -2.16857        0.90165        1.93615
H         -3.23819       -0.44499        1.61617
H         -1.54948       -1.18218       -1.78556
H         -1.97262        0.52358       -1.75395
H         -3.76371       -1.68862       -0.62790
H         -3.96663       -1.02836       -2.23906
H         -1.04584        2.38347        0.76671
H          1.06072        3.58143        0.54509
H          3.25945        4.05864        1.05665
H          2.84950        4.41122       -0.64989
H          4.54400        4.09962       -0.18307
H          0.91326       -1.25072       -0.46564
H          4.60564        0.54853        0.53374
H          6.28351       -1.13952       -0.01740
H          5.56353       -0.73093       -1.58465
H          4.27130       -2.75671       -1.62612
H          5.63243       -3.35647       -0.68425
H          2.86517       -3.06370        0.18896
H          4.20285       -3.56727        1.20881
H          4.57301       -1.36731        2.03528
H          2.86298       -1.16106        1.65112
