39
omegacsd_FIBREN_00.log	Energy: -667551.5031360
N          3.26130        1.76963       -0.37865
C          2.07758        2.16915       -0.85190
N          0.95365        1.43709       -0.95756
C          0.96462        0.15774       -0.56573
C          2.16331       -0.36954       -0.05015
C          3.22607        0.50109       -0.00085
O          4.27961       -0.18146        0.52702
C          3.78035       -1.43740        0.76799
N          2.54262       -1.61173        0.45091
C          4.72703       -2.42059        1.35355
N         -0.15141       -0.59828       -0.68884
C         -1.43711       -0.03016       -1.04126
C         -2.29940       -1.08749       -1.74788
C         -2.60196       -2.29328       -0.89147
O         -1.86676       -2.76191       -0.04865
O         -3.78811       -2.84443       -1.18772
C         -2.18535        0.60031        0.12911
C         -2.01562        0.15813        1.44005
C         -2.74753        0.73055        2.47705
C         -3.65879        1.74831        2.21526
C         -3.83299        2.19622        0.90855
C         -3.09853        1.62499       -0.12456
C          1.97453        3.59266       -1.32241
H          4.20518       -3.36555        1.50953
H          5.11740       -2.05736        2.30921
H          5.57699       -2.58177        0.68313
H         -0.14897       -1.51979       -0.26820
H         -1.23494        0.76304       -1.76728
H         -1.77361       -1.45082       -2.64002
H         -3.24189       -0.64380       -2.07954
H         -3.87677       -3.62574       -0.61588
H         -1.30442       -0.63528        1.65351
H         -2.60192        0.37821        3.49518
H         -4.22678        2.19593        3.02681
H         -4.53592        2.99741        0.69434
H         -3.22720        1.98901       -1.14338
H          2.91504        4.11708       -1.14645
H          1.16101        4.10294       -0.79784
H          1.73868        3.61785       -2.39136
