57
omegacsd_SPIRIL_00.log	Energy: -797197.5759576
C          2.41949        0.43000       -1.26065
C          3.20121        0.85058       -0.01195
C          3.13700        2.36528        0.23506
O          2.15199        3.07982        0.19621
N          4.39639        2.76508        0.55190
C          5.36323        1.69502        0.54843
N          4.65601        0.66503       -0.19500
C          5.21778       -0.64466       -0.19001
C          5.70126       -1.25698        0.97085
C          6.25860       -2.53087        0.91704
C          6.32767       -3.21669       -0.29161
C          5.84431       -2.61651       -1.45062
C          5.30470       -1.33584       -1.40145
C          2.63027        0.11510        1.21949
C          1.11031        0.24337        1.31294
N          0.49826       -0.25948        0.09201
C         -0.93673       -0.45583        0.19024
C         -1.80244        0.80353        0.41548
C         -3.25722        0.44027        0.52723
C         -4.16132        0.41509       -0.46170
C         -5.56135       -0.02334       -0.19202
C         -5.83704       -1.04770        0.72215
C         -7.13903       -1.44999        0.99257
C         -8.18038       -0.82331        0.32756
C         -7.95343        0.18154       -0.59794
C         -6.64318        0.56966       -0.85407
F         -9.44521       -1.21031        0.57853
C         -3.85061        0.83457       -1.87935
C          0.90555        0.52357       -1.06794
H          2.67601       -0.61360       -1.47978
H          2.73639        1.04259       -2.11270
H          4.59465        3.71444        0.82501
H          6.28525        1.97639        0.02448
H          5.62979        1.40796        1.58138
H          5.63505       -0.74129        1.92587
H          6.63294       -2.99218        1.82750
H          6.76086       -4.21265       -0.33082
H          5.90218       -3.14010       -2.40145
H          4.95523       -0.84348       -2.30468
H          3.09786        0.49496        2.13852
H          2.88720       -0.94684        1.12779
H          0.74854       -0.36133        2.15413
H          0.84254        1.29435        1.51804
H         -1.12441       -1.16648        1.00718
H         -1.27430       -0.94844       -0.73185
H         -1.48559        1.30441        1.33838
H         -1.63321        1.52039       -0.39502
H         -3.58816        0.14405        1.52340
H         -5.01233       -1.55521        1.21556
H         -7.35469       -2.24735        1.69695
H         -8.79467        0.64636       -1.10260
H         -6.46613        1.36098       -1.57780
H         -4.26559        0.11626       -2.59509
H         -2.77574        0.90889       -2.06002
H         -4.28920        1.81318       -2.11251
H          0.40826        0.10580       -1.95275
H          0.61553        1.58259       -0.98427
