25
omegapdb_1m5f_15.log	Energy: -499675.3606254
O          0.79774       -2.33397       -0.40841
C          1.97793       -1.70465       -0.21643
O          3.02698       -2.28839       -0.15255
C          1.80660       -0.22911       -0.09390
N          2.86359        0.46557        0.25405
O          2.45613        1.76261        0.27837
C          1.15569        1.84732       -0.06027
C          0.66348        0.60340       -0.31644
C         -0.74035        0.24932       -0.70538
C         -1.68110        0.12974        0.52504
N         -1.30004       -0.83978        1.52934
C         -3.05105       -0.25057       -0.00083
O         -3.46902       -1.37931       -0.08149
O         -3.73733        0.81874       -0.44786
C          0.55883        3.20968       -0.08536
H          1.01153       -3.27903       -0.48956
H         -0.74742       -0.70185       -1.24518
H         -1.13752        1.01571       -1.38256
H         -1.75900        1.11689        0.99653
H         -1.35676       -1.77205        1.12873
H         -0.33712       -0.68592        1.81324
H         -4.56952        0.47359       -0.81252
H         -0.44594        3.17250       -0.51400
H          1.17252        3.88678       -0.68680
H          0.48825        3.62472        0.92525
