24
omegapdb_1gs5_04.log	Energy: -441849.8825071
C         -0.29504        0.48846        0.90473
C          0.02232        1.56742       -0.14859
O          1.14577        1.89632       -0.44284
O         -1.04937        2.12661       -0.71082
C          0.95160        0.06381        1.69026
C          1.81118       -1.05909        1.07984
C          2.11671       -0.84384       -0.38057
O          1.35264       -1.14456       -1.27771
O          3.30772       -0.28815       -0.59909
N         -0.99840       -0.63652        0.29765
C         -2.32504       -0.55167        0.02308
O         -2.98764        0.44919        0.30590
C         -2.95490       -1.76050       -0.62279
H         -1.00583        0.94077        1.60580
H         -1.87132        1.74311       -0.32735
H          0.63960       -0.27518        2.68348
H          1.56913        0.95607        1.82306
H          1.28423       -2.01510        1.15896
H          2.74370       -1.13672        1.64447
H          3.35292       -0.08685       -1.54912
H         -0.42731       -1.25878       -0.26880
H         -3.47707       -1.44512       -1.52943
H         -2.23074       -2.54129       -0.86764
H         -3.70241       -2.16814        0.06385
