44
omegacsd_CUHNEY10_00.log	Energy: -1049286.2927408
Cl         4.05850        3.03957       -0.61265
C          2.40927        2.54269       -0.41327
C          1.95042        1.38945       -1.03118
N          0.70052        0.95332       -0.89511
C         -0.14312        1.65584       -0.14398
N         -1.43473        1.10638       -0.05174
C         -2.55141        1.71615        0.52125
O         -2.59951        2.79685        1.06144
C         -3.67185        0.74855        0.29824
N         -4.93890        0.89977        0.66234
C         -5.70809       -0.13742        0.33005
C         -5.21441       -1.27038       -0.33180
N         -3.93573       -1.40616       -0.68987
C         -3.18571       -0.36344       -0.36150
C         -1.70829       -0.21647       -0.61715
O         -0.98372       -1.19747        0.09038
C         -0.15362       -1.98478       -0.66871
O         -0.22625       -2.05657       -1.87591
N          0.70180       -2.69209        0.11760
C          0.99685       -2.35181        1.50433
C          2.28378       -1.53609        1.58148
N          3.38316       -2.24313        0.93847
C          3.06921       -2.55859       -0.44881
C          1.79692       -3.39486       -0.53756
C          4.61203       -1.48041        1.03390
C          0.22159        2.83918        0.51290
C          1.52612        3.28054        0.36858
H          2.61230        0.79253       -1.65580
H         -6.76028       -0.07608        0.59779
H         -5.88221       -2.09278       -0.57785
H         -1.44115       -0.26977       -1.67501
H          0.15963       -1.80440        1.93473
H          1.12434       -3.28978        2.05793
H          2.54570       -1.36474        2.63261
H          2.10854       -0.54614        1.11421
H          2.93100       -1.63945       -1.05426
H          3.90987       -3.11537       -0.87950
H          1.51949       -3.57984       -1.57555
H          1.94679       -4.35312       -0.02643
H          5.43528       -2.04466        0.58314
H          4.85616       -1.30233        2.08660
H          4.54620       -0.49835        0.52528
H         -0.50009        3.38391        1.10639
H          1.85872        4.18954        0.86093
