41
omegacsd_CEJTIU_12.log	Energy: -611026.9337960
C          5.92907       -2.15615       -0.80360
N          5.49172       -1.19626        0.18716
C          6.51810       -0.45593        0.89051
C          4.24809       -0.59347        0.01512
C          3.30590       -1.09976       -0.89715
C          2.05733       -0.51287       -1.03313
C          1.69685        0.60620       -0.28507
C          2.62431        1.13480        0.61096
C          3.87281        0.54255        0.75184
N          0.39502        1.13261       -0.48573
C         -0.17933        2.19710        0.14311
O          0.38306        2.95613        0.90764
N         -1.53133        2.42846       -0.20463
C         -2.63785        1.59967       -0.37665
O         -3.73138        2.10781       -0.50022
C         -2.42073        0.08919       -0.41612
C         -3.65906       -0.69920       -0.06184
C         -3.67196       -1.49426        1.08259
C         -4.79680       -2.24513        1.41435
C         -5.92203       -2.20688        0.59920
C         -5.91731       -1.41362       -0.54609
C         -4.79394       -0.66470       -0.87448
H          6.92058       -2.52418       -0.53094
H          5.25757       -3.02162       -0.82974
H          5.98319       -1.73228       -1.81969
H          7.43355       -1.05114        0.91520
H          6.74655        0.51390        0.41991
H          6.22287       -0.27014        1.92908
H          3.53677       -1.96305       -1.51115
H          1.35107       -0.93978       -1.74457
H          2.37210        2.01388        1.18961
H          4.56482        0.99050        1.45639
H         -0.12162        0.72169       -1.24758
H         -1.80853        3.38017        0.00610
H         -2.10479       -0.16628       -1.43915
H         -1.59582       -0.19073        0.24551
H         -2.79272       -1.52823        1.72361
H         -4.79063       -2.85972        2.31098
H         -6.80203       -2.79188        0.85428
H         -6.79509       -1.37665       -1.18628
H         -4.79988       -0.03499       -1.75995
