41
omegacsd_CEJTIU_10.log	Energy: -611027.9352158
C         -4.98328       -2.19981       -1.07506
N         -4.66328       -1.34634        0.04850
C         -5.69686       -1.10377        1.03219
C         -3.64305       -0.41497       -0.09020
C         -3.45532        0.60978        0.85786
C         -2.41080        1.51281        0.73704
C         -1.53794        1.45497       -0.34413
C         -1.72293        0.46073       -1.29933
C         -2.75026       -0.46515       -1.17700
N         -0.50284        2.42889       -0.48619
C          0.82354        2.18806       -0.68444
O          1.57301        2.97362       -1.23343
N          1.30752        0.93244       -0.24592
C          1.08308        0.36030        0.99779
O          0.31453        0.80523        1.82147
C          1.84391       -0.94459        1.23926
C          3.20463       -1.05063        0.59346
C          4.32007       -0.46653        1.20019
C          5.57221       -0.53579        0.60008
C          5.72774       -1.18868       -0.62026
C          4.62470       -1.77150       -1.23512
C          3.37208       -1.70178       -0.63063
H         -4.13350       -2.84198       -1.33429
H         -5.27062       -1.63344       -1.97526
H         -5.81334       -2.85451       -0.80133
H         -6.42317       -1.91840        0.99606
H         -5.27644       -1.08422        2.04405
H         -6.23144       -0.15520        0.86534
H         -4.11630        0.69628        1.71286
H         -2.25467        2.26981        1.49996
H         -1.05470        0.41163       -2.15611
H         -2.85910       -1.22166       -1.94623
H         -0.76686        3.35044       -0.80744
H          2.19505        0.71016       -0.68061
H          1.90890       -1.05340        2.32514
H          1.18826       -1.74651        0.87654
H          4.20263        0.04503        2.15371
H          6.42991       -0.07794        1.08599
H          6.70647       -1.24332       -1.08947
H          4.73774       -2.28462       -2.18665
H          2.51195       -2.16463       -1.11165
