39
omegacsd_GALSEM_00.log	Energy: -1046255.8957250
S         -2.20560       -0.86447        0.19418
O         -1.23231       -1.84247       -0.28171
O         -2.55740       -0.80617        1.59839
N         -3.58699       -1.16528       -0.68809
C         -4.96007       -1.10438       -0.35607
O         -5.73887       -1.54431       -1.16884
C         -5.36752       -0.49100        0.96274
C         -6.88077       -0.35200        1.06351
C         -1.65781        0.72821       -0.35093
C         -0.29070        1.08540       -0.25533
N          0.66185        0.18633        0.14269
C          2.01639        0.46860        0.42038
C          2.99574       -0.38917       -0.07899
C          4.33173       -0.16889        0.23314
C          4.71006        0.90962        1.02637
C          3.73049        1.76155        1.52357
C          2.38882        1.53854        1.23765
C          5.38895       -1.06921       -0.34753
F          5.88449       -0.56808       -1.49445
F          6.42548       -1.22021        0.49549
F          4.90706       -2.29283       -0.62580
C          0.01242        2.40823       -0.62494
C         -1.00033        3.25524       -1.03179
N         -2.29340        2.91894       -1.12278
C         -2.58774        1.67038       -0.78597
H         -3.40817       -1.63604       -1.57011
H         -4.86774        0.47745        1.08469
H         -4.96578       -1.11895        1.76511
H         -7.36984       -1.32367        0.95893
H         -7.27200        0.30004        0.27758
H         -7.15247        0.07336        2.03383
H          0.40358       -0.79242        0.07653
H          2.71131       -1.22855       -0.70732
H          5.75732        1.07005        1.26249
H          4.01071        2.59518        2.16123
H          1.62349        2.18090        1.66429
H          1.03840        2.75773       -0.61570
H         -0.75741        4.27712       -1.31784
H         -3.63461        1.38648       -0.87807
