39
omegacsd_FIBREN_19.log	Energy: -667542.2486200
N         -2.52704        1.41154        1.23597
C         -1.21759        1.60437        1.05468
N         -0.38790        0.82820        0.32979
C         -0.86829       -0.22371       -0.33070
C         -2.23541       -0.52211       -0.20556
C         -2.95647        0.34007        0.58887
O         -4.24519       -0.09967        0.58345
C         -4.22282       -1.20869       -0.22419
N         -3.07046       -1.50943       -0.72068
C         -5.51819       -1.90818       -0.41798
N         -0.03104       -0.97111       -1.09202
C          1.34757       -0.64157       -1.42524
C          1.53794        0.80272       -1.95461
C          1.59591        2.01927       -1.02966
O          1.08429        3.06419       -1.34349
O          2.38224        1.95164        0.05831
C          2.36609       -1.04987       -0.36042
C          3.71681       -1.12471       -0.72148
C          4.68504       -1.48786        0.20683
C          4.31679       -1.78452        1.51690
C          2.97795       -1.71717        1.88467
C          2.00713       -1.35397        0.95298
C         -0.58079        2.79905        1.69893
H         -5.90411       -2.27635        0.53770
H         -5.36956       -2.74910       -1.09651
H         -6.26248       -1.22619       -0.84018
H         -0.45374       -1.75321       -1.56848
H          1.56162       -1.27283       -2.29600
H          0.74818        1.01513       -2.67891
H          2.48633        0.81811       -2.50886
H          2.58990        1.02874        0.27195
H          4.01421       -0.90241       -1.74549
H          5.72791       -1.54261       -0.09397
H          5.07117       -2.06732        2.24599
H          2.68102       -1.94663        2.90462
H          0.96551       -1.30180        1.25229
H         -0.10302        3.41415        0.92833
H          0.20936        2.47899        2.38546
H         -1.32796        3.38106        2.24052
