46
omegacsd_CDBMPI10_06.log	Energy: -649539.0870886
O          2.01945        1.97967        0.80079
C          2.20199        1.02030        0.06468
N          1.23812        0.53251       -0.79985
C         -0.03807        1.24931       -0.95371
C         -1.00993        0.84109        0.15900
N         -1.18464       -0.61104        0.17302
C          0.05145       -1.40287        0.19590
C          1.01752       -0.91380       -0.89465
C          0.67824       -1.38260        1.59150
C         -2.35855       -1.25992       -0.12644
O         -2.38659       -2.43354       -0.47477
C         -3.65422       -0.50952        0.03213
C         -3.92924        0.28707        1.14498
C         -5.18054        0.87729        1.29157
C         -6.16047        0.68183        0.32254
C         -5.89419       -0.12252       -0.78288
C         -4.65083       -0.72814       -0.91918
C          0.08514        2.76062       -1.10532
C          3.54759        0.34796        0.03100
C          4.11019       -0.13713       -1.15093
C          5.38716       -0.68809       -1.14121
C          6.10397       -0.76298        0.05024
C          5.54992       -0.27017        1.22921
C          4.28007        0.29471        1.21682
H         -0.45251        0.85749       -1.89382
H         -0.62258        1.19565        1.12282
H         -1.97438        1.31944       -0.01519
H         -0.24568       -2.42388       -0.05253
H          0.59442       -1.13108       -1.88271
H          1.96586       -1.44650       -0.80763
H         -0.02355       -1.79968        2.32022
H          1.59237       -1.98679        1.60922
H          0.94069       -0.36960        1.91614
H         -3.16762        0.43117        1.90838
H         -5.39142        1.48708        2.16621
H         -7.13576        1.14869        0.43429
H         -6.66172       -0.28694       -1.53469
H         -4.43907       -1.38750       -1.75620
H          0.88010        3.00618       -1.81641
H         -0.85729        3.15351       -1.50254
H          0.31027        3.25172       -0.15887
H          3.54991       -0.06586       -2.08038
H          5.82510       -1.05651       -2.06518
H          7.09923       -1.20011        0.05842
H          6.11168       -0.32007        2.15828
H          3.84140        0.70962        2.12016
