25
omegapdb_1m5f_14.log	Energy: -499677.7196782
O         -0.67062       -2.39852        0.02571
C         -1.89729       -1.83507        0.10670
O         -2.90227       -2.47714        0.26202
C         -1.81949       -0.35418       -0.01018
N         -2.89746        0.33592        0.27720
O         -2.54872        1.63942        0.10336
C         -1.26224        1.73052       -0.28894
C         -0.72579        0.48275       -0.39032
C          0.67339        0.12504       -0.79503
C          1.60287       -0.00636        0.42466
N          1.64386        1.23697        1.17985
C          3.01905       -0.36341        0.01058
O          4.01815        0.13899        0.46848
O          3.05852       -1.34250       -0.90941
C         -0.72068        3.09623       -0.52702
H         -0.81294       -3.35685        0.10327
H          0.67619       -0.81025       -1.35864
H          1.07089        0.91331       -1.44400
H          1.24940       -0.86823        1.01627
H          2.55234        1.32781        1.62564
H          0.93332        1.23527        1.90277
H          3.99963       -1.51317       -1.08093
H         -1.24032        3.81979        0.10655
H         -0.85756        3.39852       -1.57109
H          0.34483        3.10840       -0.28330
