34
omegapdb_2f7p_05.log	Energy: -719062.9107996
C         -0.96710        0.19295       -0.66809
N          0.37674        0.24529       -0.12472
C          1.42874        0.12832       -1.13718
C          2.78884        0.03950       -0.48884
C          3.13555       -1.10103        0.24003
C          4.37276       -1.19184        0.86402
C          5.28147       -0.13882        0.76692
C          4.94505        0.99960        0.04398
C          3.70197        1.08695       -0.58025
C         -1.41578       -1.28850       -0.85196
O         -0.71201       -2.11266        0.05487
C         -2.94048       -1.30390       -0.50729
O         -3.17339       -2.01075        0.69069
C         -3.32655        0.17235       -0.25390
O         -4.42683        0.29472        0.59067
C         -2.01592        0.76903        0.28317
S         -1.96143        2.56127        0.51022
H         -1.04597        0.71458       -1.63825
H          0.50295        1.10421        0.40667
H          1.23242       -0.78839       -1.70818
H          1.40027        0.96580       -1.85356
H          2.42541       -1.92375        0.30917
H          4.63290       -2.08606        1.42466
H          6.25076       -0.20967        1.25358
H          5.65001        1.82315       -0.03605
H          3.44079        1.97981       -1.14582
H         -1.23788       -1.64410       -1.87351
H         -0.04267       -1.51053        0.45226
H         -3.54275       -1.74744       -1.30886
H         -2.30565       -2.38100        0.94115
H         -3.57753        0.66727       -1.20296
H         -4.34872       -0.45334        1.20708
H         -1.84783        0.35432        1.28606
H         -2.27414        2.87962       -0.75730
