34
omegapdb_2f7p_12.log	Energy: -719060.2424662
C         -0.91323        0.12643       -0.54682
N          0.44164        0.21357       -0.04809
C          1.43697       -0.40590       -0.91698
C          2.83727       -0.23240       -0.36877
C          3.78451       -1.24486       -0.51787
C          5.08381       -1.07810       -0.04704
C          5.44787        0.10483        0.58828
C          4.50591        1.11795        0.74778
C          3.21013        0.95112        0.27100
C         -1.59395       -1.25537       -0.50439
O         -1.37162       -1.94373        0.71982
C         -3.07840       -0.89999       -0.63451
O         -3.93088       -1.95645       -0.24753
C         -3.22590        0.31671        0.31172
O         -3.38923       -0.17473        1.63863
C         -1.86921        1.04340        0.25453
S         -2.02544        2.71359       -0.44660
H         -0.90916        0.45725       -1.59425
H          0.47821       -0.24746        0.85966
H          1.36441        0.08573       -1.89755
H          1.25015       -1.47986       -1.09022
H          3.50137       -2.17669       -1.00474
H          5.81045       -1.87745       -0.16996
H          6.46007        0.23541        0.96272
H          4.78196        2.04377        1.24676
H          2.46703        1.73367        0.39987
H         -1.24395       -1.92745       -1.29400
H         -1.81361       -1.42318        1.41714
H         -3.31343       -0.60761       -1.66502
H         -3.35568       -2.60181        0.19542
H         -4.07362        0.96050        0.04251
H         -4.09706       -0.83743        1.56760
H         -1.50880        1.14004        1.28338
H         -0.70355        2.94658       -0.48603
