66
omegapdb_1z1r_01.log	Energy: -1302689.6983185
C         -0.17745       -1.08707        1.32086
C         -0.38723       -2.37451        0.50659
C         -1.83468       -2.48635        0.08340
C         -2.83017       -2.72671        1.03334
C         -4.17506       -2.61336        0.70664
C         -4.54578       -2.26021       -0.58920
C         -3.57007       -2.11308       -1.57295
C         -2.22524       -2.21297       -1.22825
O         -5.87690       -2.05933       -0.84464
C         -6.23900       -0.74991       -1.29060
C         -5.95953        0.36582       -0.28054
C         -4.52735        0.89932       -0.29668
C         -4.33335        2.07373        0.65079
O         -5.22442        2.49605        1.36439
N         -3.08585        2.66617        0.65555
C         -1.89656        2.07781        0.08550
C         -1.22899        1.10786        1.07615
O         -1.29000        1.30030        2.29227
N         -0.59155        0.05657        0.52707
C         -0.89709        3.15102       -0.35467
C          0.19011        2.51800       -1.22047
O         -0.04130        1.52308       -1.90002
N          1.40163        3.10884       -1.18773
C          1.22354       -0.93814        1.94118
O          1.37833        0.33345        2.53696
C          2.40481       -1.12122        0.99489
N          2.43553       -0.02737        0.02876
S          3.55121       -0.08273       -1.18702
O          3.53245        1.23709       -1.81009
O          3.29729       -1.29459       -1.94337
C          5.14816       -0.26615       -0.42002
C          5.69437       -1.53808       -0.27814
C          6.92600       -1.67807        0.35432
C          7.59449       -0.55586        0.83496
C          7.04043        0.71341        0.68125
C          5.81130        0.86447        0.05096
H         -0.87048       -1.10827        2.17233
H         -0.08510       -3.23227        1.12155
H          0.26322       -2.36383       -0.37791
H         -2.55144       -2.96313        2.05938
H         -4.95260       -2.75228        1.45219
H         -3.85940       -1.88024       -2.59437
H         -1.46637       -2.04830       -1.99174
H         -5.75718       -0.52993       -2.25497
H         -7.31460       -0.82608       -1.46930
H         -6.22005        0.01397        0.72351
H         -6.64030        1.19826       -0.49243
H         -3.81257        0.11786       -0.01489
H         -4.25308        1.20559       -1.31600
H         -2.94620        3.24947        1.47203
H         -2.17119        1.52685       -0.81524
H         -0.45317        0.05464       -0.47891
H         -0.46789        3.66238        0.51585
H         -1.43233        3.89930       -0.95090
H          1.58440        3.91738       -0.61606
H          2.16741        2.65172       -1.67634
H          1.31040       -1.73406        2.70101
H          0.49392        0.67421        2.77375
H          2.32454       -2.06744        0.45187
H          3.32411       -1.14955        1.59892
H          2.37565        0.88596        0.47267
H          5.16588       -2.39705       -0.68124
H          7.36644       -2.66491        0.46561
H          8.55714       -0.66920        1.32635
H          7.57032        1.58820        1.04757
H          5.37524        1.84813       -0.09756
