61
omegapdb_1v2k_12.log	Energy: -1425433.4651862
N         -6.06332       -0.71713        1.39496
C         -5.42997       -1.86578        1.64186
C         -4.26993       -2.29091        1.01205
C         -3.68016       -1.47483        0.02715
C         -4.35618       -0.27051       -0.25488
C         -5.50733        0.04485        0.44833
N         -2.52734       -1.84502       -0.62130
C         -1.95819       -3.17125       -0.39863
C         -0.85711       -3.46174       -1.41390
C          0.30731       -2.46090       -1.32285
C         -0.22939       -1.05453       -0.94917
C         -1.69940       -0.87685       -1.32313
C          1.30205       -2.89400       -0.24897
O          0.94888       -3.61429        0.67656
N          2.57649       -2.39449       -0.31963
C          3.45951       -2.59168        0.82108
C          3.77015       -1.24113        1.45653
N          4.26363       -0.32707        0.41402
C          4.37437       -0.85499       -0.93990
C          3.07581       -1.53199       -1.39131
S          4.12304        1.29978        0.66185
O          5.02896        1.94706       -0.27153
O          4.20590        1.48499        2.09876
C          2.47580        1.77476        0.15998
C          1.43614        1.68569        1.04833
C          0.12653        2.06401        0.64807
C         -0.07772        2.56298       -0.66478
C          1.02899        2.64772       -1.55463
C          2.27909        2.25906       -1.15863
C         -1.37871        2.97545       -1.05709
C         -2.41898        2.87077       -0.17488
C         -2.23839        2.34214        1.12703
C         -0.98721        1.95837        1.52578
Cl        -4.00725        3.39120       -0.64809
H         -5.87538       -2.49809        2.40988
H         -3.82266       -3.23271        1.30896
H         -4.01688        0.40535       -1.03266
H         -6.02115        0.98008        0.22507
H         -1.54687       -3.27214        0.61522
H         -2.75425       -3.91740       -0.50996
H         -0.49104       -4.47834       -1.24792
H         -1.28489       -3.42526       -2.42275
H          0.80709       -2.41238       -2.29770
H          0.35472       -0.26093       -1.42894
H         -0.14325       -0.90033        0.13396
H         -2.00262        0.13156       -1.03115
H         -1.82840       -0.95097       -2.41451
H          2.93684       -3.23183        1.53156
H          4.37664       -3.10755        0.51348
H          2.84758       -0.84768        1.90076
H          4.51421       -1.33816        2.25346
H          5.20952       -1.56325       -0.97245
H          4.63563       -0.03838       -1.61616
H          3.27020       -2.10774       -2.30720
H          2.33898       -0.75885       -1.62932
H          1.61454        1.36055        2.07062
H          0.87040        3.04660       -2.55387
H          3.13561        2.35731       -1.81884
H         -1.53967        3.37939       -2.05285
H         -3.09437        2.24918        1.78783
H         -0.83438        1.56077        2.52614
