36
omegapdb_1qxw_31.log	Energy: -410435.2954795
C         -4.92219       -0.76395       -0.08818
C         -3.93486       -1.90402       -0.08235
C         -3.61231       -0.60471        0.61050
N         -2.63657        0.31355        0.08509
C         -1.25922       -0.15253        0.19562
C         -0.34799        1.00710       -0.20624
C          1.15710        0.78231        0.06073
N          1.49209        0.75954        1.47995
C          1.68876       -0.45387       -0.66884
C          3.21084       -0.51179       -0.84159
C          4.00481       -0.85357        0.42028
C          5.50230       -0.96695        0.14602
O         -0.71539        2.15709        0.50567
O         -0.59054        1.20009       -1.59318
H         -5.06230       -0.22599       -1.02315
H         -5.82358       -0.84826        0.51147
H         -3.41570       -2.11744       -1.01397
H         -4.15603       -2.78046        0.52040
H         -3.63219       -0.61561        1.69923
H         -2.82282        0.51336       -0.89455
H         -1.06569       -0.41301        1.24283
H         -1.04850       -1.03802       -0.42222
H          1.64956        1.66926       -0.36955
H          1.19198       -0.11945        1.89489
H          0.97452        1.50210        1.94350
H          1.35053       -1.36117       -0.14274
H          1.21715       -0.47460       -1.65771
H          3.56376        0.44968       -1.24332
H          3.44024       -1.26229       -1.61180
H          3.63378       -1.80652        0.82612
H          3.81129       -0.09562        1.18607
H          5.71290       -1.74226       -0.60111
H          6.05876       -1.21884        1.05530
H          5.90413       -0.02149       -0.23826
H         -1.68419        2.08210        0.60326
H         -0.26225        2.08732       -1.79551
