41
omegacsd_CEJTIU_04.log	Energy: -611038.6746387
C          6.77961        0.44857       -1.08472
N          6.10024       -0.20507        0.02198
C          6.63962       -1.52209        0.28071
C          4.69244       -0.07965        0.04518
C          3.83329       -1.17581        0.15622
C          2.44887       -1.02302        0.21890
C          1.88536        0.24768        0.15433
C          2.73426        1.35424        0.04238
C          4.10675        1.19525       -0.00303
N          0.49807        0.50831        0.20375
C         -0.49885       -0.40355        0.27854
O         -0.39461       -1.61559        0.31883
N         -1.80697        0.15431        0.31392
C         -2.20532        1.46337        0.28047
O         -1.43200        2.40874        0.21006
C         -3.70876        1.70771        0.38600
C         -4.60666        0.54182        0.05144
C         -4.94520        0.26969       -1.27680
C         -5.74608       -0.82105       -1.59546
C         -6.21825       -1.65894       -0.58815
C         -5.88671       -1.39885        0.73730
C         -5.08603       -0.30414        1.05374
H          6.41201        1.46696       -1.22134
H          6.64720       -0.09378       -2.03737
H          7.85161        0.50611       -0.86789
H          6.22703       -1.92227        1.21136
H          7.72469       -1.43952        0.39990
H          6.44089       -2.24565       -0.53077
H          4.23322       -2.18413        0.19088
H          1.80770       -1.89078        0.30492
H          2.30966        2.35588        0.00509
H          4.73830        2.07806       -0.05062
H          0.19715        1.48016        0.17727
H         -2.51798       -0.56536        0.34841
H         -3.88484        2.04808        1.41394
H         -3.91228        2.56680       -0.26023
H         -4.57757        0.92191       -2.06690
H         -6.00157       -1.01806       -2.63327
H         -6.84369       -2.51207       -0.83705
H         -6.25289       -2.04685        1.52921
H         -4.83520       -0.10075        2.09356
