36
omegapdb_1qxw_22.log	Energy: -410432.0298311
C         -3.76499        1.28871        0.94786
C         -4.55694        0.63232       -0.15618
C         -3.08321        0.81259       -0.31089
N         -2.22373       -0.34069       -0.32723
C         -0.93918       -0.13006        0.33462
C          0.11237       -1.08220       -0.24792
C          1.26512       -1.42193        0.71378
N          2.21883       -2.20143       -0.07938
C          1.97434       -0.24081        1.39488
C          2.83605        0.69844        0.53262
C          2.11381        1.91750       -0.04430
C          3.07572        2.87350       -0.74587
O          0.60266       -0.52651       -1.43462
O         -0.49495       -2.33598       -0.52168
H         -3.88682        2.35622        1.10967
H         -3.60231        0.71258        1.85603
H         -4.92802       -0.37524        0.01944
H         -5.21979        1.24554       -0.75939
H         -2.75480        1.58241       -1.00708
H         -2.69615       -1.12733        0.10736
H         -0.61913        0.90129        0.16155
H         -1.00527       -0.27547        1.42605
H          0.80766       -2.01985        1.51895
H          1.79430       -3.09373       -0.31606
H          3.06333       -2.38779        0.45287
H          2.62000       -0.69065        2.16241
H          1.23220        0.34546        1.95368
H          3.66363        1.06249        1.15750
H          3.30090        0.12836       -0.28214
H          1.59939        2.44925        0.77002
H          1.34714        1.58317       -0.75022
H          2.55026        3.74293       -1.15524
H          3.58791        2.37365       -1.57677
H          3.84498        3.24126       -0.05558
H          1.42646       -1.02269       -1.60268
H         -1.15183       -2.12534       -1.20515
