25
omegapdb_1m5f_07.log	Energy: -499680.8369187
O          3.55203       -1.31915        0.53313
C          2.29434       -1.29624        0.08404
O          1.68061       -2.30202       -0.17723
C          1.70135        0.06467       -0.06091
N          2.39695        1.10666        0.31693
O          1.59630        2.18391        0.09775
C          0.41537        1.77742       -0.41236
C          0.41929        0.42248       -0.55366
C         -0.64866       -0.49765       -1.05352
C         -1.47685       -1.12480        0.08540
N         -2.34389       -2.17201       -0.45688
C         -2.35193       -0.02235        0.69747
O         -1.92498        0.81451        1.45484
O         -3.61138       -0.02679        0.25514
C         -0.60701        2.82903       -0.64877
H          3.84726       -0.40505        0.69607
H         -1.32142        0.02931       -1.74177
H         -0.17325       -1.31275       -1.60877
H         -0.78724       -1.48349        0.85824
H         -2.57830       -2.84770        0.26498
H         -1.87069       -2.68617       -1.19395
H         -3.68255       -0.82646       -0.31578
H         -0.14125        3.74586       -1.01909
H         -1.34242        2.48201       -1.37946
H         -1.13757        3.04287        0.28407
