25
omegapdb_1m5f_12.log	Energy: -499677.7135079
O          0.77650       -2.19861       -1.11086
C          1.68211       -1.80170       -0.18822
O          2.38615       -2.57267        0.40799
C          1.72661       -0.31843       -0.06355
N          2.85605        0.22630        0.30972
O          2.62751        1.57256        0.31654
C          1.35486        1.82486       -0.04809
C          0.71338        0.65664       -0.31688
C         -0.72068        0.45424       -0.69104
C         -1.57470        0.03199        0.52405
N         -1.08824       -1.21171        1.08441
C         -3.03762       -0.04259        0.10130
O         -3.68639       -1.05811        0.02841
O         -3.53980        1.16788       -0.21276
C          0.94581        3.25547       -0.07004
H          0.84151       -3.16791       -1.13551
H         -0.79893       -0.31942       -1.46242
H         -1.13343        1.37752       -1.11109
H         -1.49029        0.81817        1.28423
H         -1.53114       -1.38340        1.98217
H         -1.37789       -1.97608        0.47892
H         -4.45959        1.01974       -0.48943
H          1.00330        3.69139        0.93239
H          1.60241        3.83473       -0.72645
H         -0.08104        3.35196       -0.43139
