45
omegacsd_FABSOQ10_07.log	Energy: -924264.3475250
S          0.00002       -1.73709       -1.22349
C          1.24560       -2.27047       -0.14634
C          0.71532       -2.82983        0.97565
C         -0.71590       -2.82976        0.97549
C         -1.24586       -2.27034       -0.14663
C         -2.71162       -2.08227       -0.47960
O         -3.50022       -2.96745        0.29451
C         -3.17855       -0.66867       -0.19898
C         -3.30402        0.25720       -1.22332
C         -3.69436        1.57388       -0.97051
C         -3.97328        1.96266        0.33692
O         -4.36717        3.21156        0.70472
C         -4.49040        4.18191       -0.31108
C         -3.85707        1.03221        1.37749
C         -3.46036       -0.26396        1.11026
C          2.71144       -2.08256       -0.47901
O          3.49981       -2.96764        0.29546
C          3.17842       -0.66895       -0.19859
C          3.30491        0.25649       -1.22317
C          3.69537        1.57319       -0.97057
C          3.97338        1.96239        0.33693
O          4.36730        3.21133        0.70456
C          4.49142        4.18130       -0.31150
C          3.85612        1.03237        1.37777
C          3.45931       -0.26380        1.11073
H          1.32755       -3.21881        1.78272
H         -1.32836       -3.21867        1.78242
H         -2.85548       -2.27964       -1.55488
H         -3.13958       -3.85517        0.16673
H         -3.09759       -0.04120       -2.25015
H         -3.78145        2.27115       -1.79700
H         -3.53272        4.35534       -0.81920
H         -5.24503        3.89282       -1.05429
H         -4.80699        5.10114        0.18435
H         -4.08381        1.35846        2.38832
H         -3.37567       -0.98566        1.91816
H          2.85554       -2.28017       -1.55422
H          3.13927       -3.85539        0.16764
H          3.09919       -0.04224       -2.25005
H          3.78326        2.27012       -1.79726
H          5.24648        3.89179       -1.05411
H          3.53411        4.35474       -0.82032
H          4.80788        5.10063        0.18383
H          4.08215        1.35896        2.38865
H          3.37378       -0.98515        1.91885
