25
omegapdb_1m5f_18.log	Energy: -499676.6712153
O          0.74751       -2.20005       -1.12410
C          1.67201       -1.82592       -0.20803
O          2.37703       -2.61694        0.36004
C          1.73357       -0.34682       -0.05276
N          2.86574        0.16869        0.35466
O          2.66343        1.51752        0.38261
C          1.40413        1.80249       -0.00461
C          0.74497        0.65268       -0.30875
C         -0.68486        0.49371       -0.71911
C         -1.58056        0.08030        0.46237
N         -1.16602       -1.19820        1.00391
C         -3.04313        0.19490        0.03124
O         -3.50581        1.13121       -0.57610
O         -3.79239       -0.85611        0.41835
C          1.02355        3.24094       -0.01025
H          0.81964       -3.16786       -1.17700
H         -0.76545       -0.26079       -1.50928
H         -1.07176        1.43115       -1.12920
H         -1.45550        0.83402        1.25243
H         -1.33098       -1.93270        0.32183
H         -1.71483       -1.43093        1.82543
H         -4.69530       -0.66477        0.11349
H          0.01113        3.36407       -0.40269
H          1.71188        3.81942       -0.63397
H          1.05688        3.65632        1.00198
