44
omegacsd_CUHNEY10_04.log	Energy: -1049279.0998696
Cl         3.96066        3.11623       -0.55815
C          2.31464        2.59738       -0.39255
C          1.88679        1.43132       -1.00909
N          0.64074        0.97700       -0.89731
C         -0.23033        1.67342       -0.17005
N         -1.51068        1.09923       -0.08733
C         -2.63546        1.66996        0.50975
O         -2.71223        2.75226        1.04349
C         -3.72156        0.65622        0.32632
N         -4.98351        0.76152        0.72327
C         -5.71815       -0.31108        0.42760
C         -5.19653       -1.43298       -0.23182
N         -3.92404       -1.52171       -0.62445
C         -3.20833       -0.44519       -0.33046
C         -1.74718       -0.23993       -0.63438
O         -0.94919       -1.17742        0.04887
C         -0.11258       -1.92365       -0.74588
O         -0.31244       -2.11404       -1.92611
N          0.90992       -2.42213       -0.00783
C          1.23339       -1.87664        1.31463
C          2.53251       -2.51841        1.79949
N          3.66125       -2.33249        0.89371
C          3.29093       -2.43517       -0.51891
C          1.96391       -3.15981       -0.69836
C          4.43139       -1.13206        1.14896
C          0.10106        2.87235        0.47642
C          1.40163        3.33199        0.35734
H          2.57081        0.84186       -1.61663
H         -6.76416       -0.28882        0.72423
H         -5.83613       -2.28586       -0.44723
H         -1.52225       -0.28793       -1.70263
H          0.42053       -2.08461        2.01789
H          1.34617       -0.78573        1.25105
H          2.36287       -3.59166        1.95597
H          2.79528       -2.10038        2.77619
H          3.17826       -1.43161       -0.96942
H          4.08369       -2.95173       -1.07651
H          1.69366       -3.21193       -1.75364
H          2.02637       -4.18438       -0.31197
H          4.77987       -1.12198        2.18676
H          3.87173       -0.19469        0.95744
H          5.31532       -1.12454        0.50152
H         -0.64281        3.41272        1.04599
H          1.70806        4.25269        0.84492
