57
omegacsd_SPIRIL_07.log	Energy: -797196.0523144
C          2.55159       -0.93458       -1.30869
C          3.48557       -0.55552       -0.15291
C          4.75669       -1.41728       -0.13465
O          4.83014       -2.62614       -0.25974
N          5.79877       -0.57550        0.09123
C          5.41285        0.80927        0.21066
N          4.07066        0.78846       -0.34861
C          3.26678        1.94982       -0.15888
C          2.57184        2.46396       -1.25701
C          1.76780        3.59102       -1.12429
C          1.66479        4.23535        0.10507
C          2.36530        3.74061        1.20095
C          3.15568        2.60244        1.07360
C          2.75103       -0.72812        1.19563
C          2.05233       -2.09383        1.29241
N          1.12032       -2.34493        0.20122
C         -0.09210       -1.53952        0.26188
C         -1.26858       -2.21126       -0.45714
C         -2.49344       -1.34264       -0.42641
C         -3.69951       -1.61671        0.08878
C         -4.77675       -0.58430        0.04680
C         -4.48594        0.77140        0.24227
C         -5.47798        1.74291        0.19170
C         -6.78389        1.34750       -0.04791
C         -7.11967        0.01634       -0.23021
C         -6.11244       -0.94037       -0.17512
F         -7.75340        2.28045       -0.09299
C         -4.07145       -2.94026        0.71263
C          1.82968       -2.27324       -1.07366
H          1.81321       -0.13031       -1.42041
H          3.12472       -0.97252       -2.24263
H          6.74003       -0.91853        0.19883
H          6.06112        1.46740       -0.38141
H          5.46090        1.13794        1.26409
H          2.68839        1.97242       -2.21891
H          1.23374        3.97656       -1.98901
H          1.04592        5.12283        0.20784
H          2.28995        4.23709        2.16514
H          3.68210        2.21510        1.94269
H          3.45691       -0.60396        2.02916
H          2.00694        0.07415        1.28565
H          1.51296       -2.16962        2.24378
H          2.80689       -2.88884        1.27777
H         -0.36247       -1.41810        1.31829
H          0.03983       -0.51645       -0.13900
H         -1.43603       -3.19220       -0.00372
H         -0.99623       -2.39688       -1.50546
H         -2.35986       -0.36467       -0.89311
H         -3.46304        1.06806        0.45916
H         -5.25601        2.79369        0.34993
H         -8.15481       -0.25528       -0.41213
H         -6.37572       -1.98451       -0.32277
H         -3.19651       -3.56070        0.91628
H         -4.73263       -3.51811        0.05462
H         -4.60889       -2.78670        1.65497
H          1.12349       -2.45426       -1.89145
H          2.56538       -3.08283       -1.09318
