50
omegapdb_1xom_19.log	Energy: -710686.5203189
O         -6.03921        0.88038        0.90836
C         -5.16649        1.30729       -0.02823
O         -5.53889        2.03069       -0.91405
C         -3.71403        0.84277        0.07572
C         -3.36365       -0.02263        1.29090
C         -1.87957       -0.39683        1.28944
C         -1.44685       -1.11647       -0.01398
C         -1.84647       -0.25025       -1.23696
C         -3.32463        0.13506       -1.23179
C         -2.21330       -2.37826       -0.08941
N         -2.85809       -3.33807       -0.13848
C          0.05543       -1.41275       -0.01169
C          0.56366       -2.69407       -0.12091
C          1.94670       -2.91443       -0.12803
C          2.83276       -1.85661       -0.02302
O          4.18367       -1.96175       -0.01731
C          4.73128       -3.25655       -0.13472
C          2.32448       -0.53883        0.09131
C          0.95489       -0.33614        0.09145
O          3.26547        0.43007        0.20256
C          2.86606        1.78312        0.34773
C          2.43811        2.46157       -0.95716
C          2.61048        3.96162       -0.66535
C          3.68851        4.05610        0.45110
C          4.07527        2.60524        0.78467
H         -5.60531        0.28401        1.53320
H         -3.13144        1.77364        0.13583
H         -3.58909        0.50768        2.22580
H         -3.95807       -0.94916        1.27920
H         -1.27689        0.51423        1.38645
H         -1.63996       -1.03149        2.14911
H         -1.58957       -0.78687       -2.15649
H         -1.22983        0.65754       -1.21546
H         -3.94359       -0.76376       -1.35785
H         -3.54860        0.79742       -2.07287
H         -0.10345       -3.54730       -0.20457
H          2.31484       -3.93102       -0.21663
H          4.44234       -3.73061       -1.08185
H          5.81432       -3.12770       -0.11067
H          4.42338       -3.90062        0.69942
H          0.57262        0.67643        0.16657
H          2.07128        1.85434        1.10646
H          1.42686        2.20160       -1.28669
H          3.13328        2.12937       -1.73780
H          2.89482        4.51407       -1.56567
H          1.66580        4.39461       -0.31841
H          3.27906        4.55850        1.33394
H          4.55891        4.63839        0.13510
H          4.93068        2.27520        0.18361
H          4.33012        2.44918        1.83680
