25
omegapdb_1m5f_02.log	Energy: -499679.3855715
O         -2.75818       -2.51092        0.17870
C         -1.59641       -1.87482        0.01157
O         -0.53351       -2.44239       -0.10807
C         -1.73313       -0.39624       -0.01486
N         -2.85931        0.18018        0.32414
O         -2.63461        1.51638        0.19543
C         -1.37095        1.73572       -0.22532
C         -0.72443        0.54825       -0.38323
C          0.68536        0.30455       -0.82856
C          1.61552       -0.11465        0.31771
N          1.68786        0.79644        1.46056
C          3.03577       -0.35221       -0.21836
O          3.26438       -0.71859       -1.34297
O          3.99479       -0.13614        0.68633
C         -0.98537        3.15879       -0.42766
H         -2.54815       -3.45991        0.18915
H          0.72309       -0.47809       -1.59024
H          1.08271        1.21380       -1.29813
H          1.26973       -1.08526        0.69331
H          1.70292        1.76545        1.15007
H          0.88086        0.68945        2.06594
H          3.53246        0.21237        1.47987
H          0.01653        3.22344       -0.85913
H         -1.68590        3.65300       -1.10733
H         -0.99521        3.70637        0.52039
