25
omegapdb_1m5f_21.log	Energy: -499676.0485797
O          0.65867        1.85024        1.10647
C         -0.45136        2.08351        0.37289
O         -0.76241        3.17159       -0.02885
C         -1.22439        0.82752        0.15961
N         -2.44320        0.93138       -0.30280
O         -2.90805       -0.34708       -0.40395
C         -1.96099       -1.21466       -0.00153
C         -0.84759       -0.53518        0.38294
C          0.43641       -1.11288        0.89680
C          1.52361       -1.32022       -0.17715
N          2.70084       -1.92653        0.44811
C          1.93017        0.02966       -0.78851
O          1.27749        0.58290       -1.63701
O          3.04891        0.54474       -0.27320
C         -2.31870       -2.65753       -0.06807
H          1.15584        2.68494        1.12105
H          0.84463       -0.48029        1.69056
H          0.22607       -2.09530        1.34067
H          1.10037       -1.91830       -0.99472
H          3.24504       -2.45163       -0.22979
H          2.44031       -2.56876        1.18984
H          3.38267       -0.13407        0.35537
H         -3.26458       -2.84356        0.44923
H         -2.43355       -2.98087       -1.10763
H         -1.54015       -3.26647        0.39872
