44
omegacsd_CUHNEY10_14.log	Energy: -1049276.7378863
Cl        -3.94003        3.18405        0.15165
C         -2.33333        2.54324        0.24534
C         -1.48674        2.61870       -0.85556
N         -0.25120        2.12704       -0.84861
C          0.19891        1.57778        0.27454
N          1.51393        1.06025        0.24303
C          2.57778        1.66478       -0.43910
O          2.60277        2.76641       -0.92047
C          3.68307        0.64990       -0.37144
N          4.90708        0.76637       -0.87032
C          5.66890       -0.30770       -0.65821
C          5.21503       -1.44095        0.02939
N          3.98228       -1.54065        0.53299
C          3.23760       -0.46736        0.30965
C          1.81108       -0.27254        0.75257
O          0.96531       -1.23096        0.14842
C         -0.02252       -1.74873        0.94655
O         -0.04740       -1.59681        2.15381
N         -0.92588       -2.44948        0.21982
C         -1.07147       -2.30965       -1.22960
C         -2.22718       -1.34473       -1.52874
N         -3.47780       -1.71650       -0.87924
C         -3.28185       -1.90354        0.55317
C         -2.14919       -2.88116        0.89286
C         -4.16300       -2.82298       -1.52269
C         -0.57133        1.46299        1.43480
C         -1.87108        1.94604        1.41156
H         -1.82829        3.07826       -1.78060
H          6.68421       -0.27489       -1.04662
H          5.87592       -2.29186        0.17740
H          1.69530       -0.34381        1.83747
H         -0.13673       -1.95151       -1.65870
H         -1.27412       -3.30580       -1.64271
H         -1.93883       -0.34336       -1.17589
H         -2.39358       -1.27548       -2.60991
H         -4.22419       -2.24011        1.00077
H         -3.03455       -0.92688        0.99388
H         -1.95948       -2.91463        1.96634
H         -2.38614       -3.89624        0.55039
H         -5.13353       -2.97467       -1.03808
H         -3.62380       -3.78717       -1.50182
H         -4.34961       -2.56943       -2.57173
H         -0.17413        0.99047        2.32673
H         -2.51012        1.87537        2.28672
