66
omegapdb_1z1r_10.log	Energy: -1302687.4986092
C         -0.16447       -1.91983        0.10557
C         -1.13975       -3.11113        0.03717
C         -2.53920       -2.62626        0.34858
C         -2.82775       -2.02761        1.57773
C         -4.02135       -1.34983        1.79159
C         -4.95941       -1.25596        0.76118
C         -4.72466       -1.92201       -0.44023
C         -3.52181       -2.59152       -0.64057
O         -6.12645       -0.55654        0.88367
C         -6.05194        0.79882        1.34136
C         -5.85470        1.78344        0.19217
C         -4.45085        1.78460       -0.41455
C         -3.43040        2.45124        0.50178
O         -3.75896        2.99790        1.54148
N         -2.11625        2.49053        0.08197
C         -1.50722        1.53131       -0.81202
C         -0.81438        0.44087        0.01391
O         -0.32053        0.69891        1.10594
N         -0.72004       -0.77026       -0.58216
C         -0.45448        2.16208       -1.73698
C         -0.06825        1.16199       -2.82395
O         -0.91861        0.44294       -3.34257
N          1.23278        1.12449       -3.17922
C          1.24115       -2.21264       -0.44074
O          1.80326       -3.39695        0.10072
C          2.15601       -1.01787       -0.18821
N          3.41065       -1.18274       -0.90885
S          4.44034        0.11106       -0.98848
O          5.61281       -0.34891       -1.70675
O          3.64228        1.23956       -1.45965
C          4.92226        0.49323        0.67969
C          6.12433       -0.01409        1.16541
C          6.48350        0.25045        2.48256
C          5.64537        1.00892        3.29615
C          4.44709        1.51398        2.79741
C          4.07891        1.26129        1.48047
H         -0.06677       -1.60568        1.15256
H         -0.80056       -3.88560        0.73374
H         -1.10935       -3.55884       -0.96486
H         -2.08982       -2.05211        2.37793
H         -4.21437       -0.87694        2.75019
H         -5.47632       -1.86566       -1.22247
H         -3.33115       -3.06181       -1.60401
H         -5.26199        0.92270        2.08970
H         -7.01292        0.98607        1.82839
H         -6.07705        2.78745        0.56861
H         -6.58765        1.54700       -0.58757
H         -4.13956        0.76125       -0.65064
H         -4.45028        2.32732       -1.36917
H         -1.50399        2.78201        0.83748
H         -2.26877        1.09458       -1.45954
H         -1.14853       -0.88923       -1.49314
H         -0.89404        3.04073       -2.22196
H          0.41767        2.49918       -1.16334
H          1.98050        1.51787       -2.61879
H          1.49659        0.42784       -3.86168
H          1.18003       -2.39018       -1.52104
H          1.81194       -3.30407        1.06423
H          1.68677       -0.10468       -0.55540
H          2.30704       -0.90234        0.89832
H          3.90067       -2.05290       -0.72014
H          6.77023       -0.58875        0.50796
H          7.42261       -0.13209        2.87246
H          5.93027        1.21276        4.32490
H          3.79914        2.11235        3.43142
H          3.15573        1.66462        1.07379
