50
omegapdb_1xom_16.log	Energy: -710687.3136791
O         -5.61625       -0.89564        0.97097
C         -5.74879       -0.24906       -0.20974
O         -6.80959       -0.16972       -0.77981
C         -4.43595        0.31149       -0.70729
C         -3.68652        1.13064        0.37121
C         -2.67064        0.28729        1.14323
C         -1.54944       -0.28652        0.22237
C         -2.08277       -0.41727       -1.23652
C         -3.55013       -0.83534       -1.25167
C         -1.24228       -1.65109        0.70293
N         -1.01681       -2.73178        1.05131
C         -0.25760        0.53939        0.21311
C         -0.25610        1.90053        0.46327
C          0.93049        2.63970        0.37519
C          2.12458        2.02474        0.03869
O          3.32554        2.64668       -0.06490
C          3.36271        4.02953        0.20636
C          2.13613        0.63226       -0.21911
C          0.95239       -0.08365       -0.13379
O          3.34250        0.10998       -0.53709
C          3.44235       -1.29987       -0.76632
C          3.33237       -2.09633        0.55594
C          4.77509       -2.51697        0.92220
C          5.67884       -1.65221        0.03304
C          4.86806       -1.53997       -1.25929
H         -6.49834       -1.23743        1.19239
H         -4.70645        0.97281       -1.53579
H         -4.39851        1.57449        1.07538
H         -3.18100        1.96813       -0.12376
H         -3.20604       -0.53979        1.61921
H         -2.21348        0.86709        1.95064
H         -1.45974       -1.12820       -1.78879
H         -1.96230        0.55530       -1.72842
H         -3.67354       -1.73654       -0.63728
H         -3.86897       -1.09755       -2.26545
H         -1.16865        2.42129        0.73813
H          0.90191        3.70461        0.58098
H          2.72823        4.59478       -0.48920
H          3.04929        4.24576        1.23637
H          4.40200        4.33410        0.07405
H          0.96158       -1.15534       -0.30493
H          2.68995       -1.58866       -1.51134
H          2.89244       -1.45794        1.32820
H          2.66851       -2.96085        0.44793
H          4.98495       -2.39465        1.98911
H          4.92980       -3.57608        0.68274
H          5.80564       -0.65522        0.47078
H          6.67299       -2.08541       -0.11643
H          5.19404       -0.74446       -1.93501
H          4.89916       -2.49192       -1.80503
