40
omegapdb_2byh_03.log	Energy: -1016190.1982163
O          7.60271        0.26200        0.93933
C          6.74060        0.91522        0.38227
C          7.04889        2.28829       -0.17773
C          5.35242        0.37809        0.23653
C          5.07343       -0.88872        0.75777
C          3.80682       -1.43012        0.65043
C          2.77849       -0.71611        0.01794
C          3.04375        0.55219       -0.50732
C          4.32412        1.08063       -0.39199
N          1.52352       -1.34281       -0.05865
C          0.33625       -0.83798       -0.54250
O          0.22304        0.30844       -0.95305
C         -0.75572       -1.84046       -0.53263
C         -0.57806       -3.22828       -0.75062
N         -1.71397       -3.89481       -0.67381
N         -2.62439       -2.95288       -0.40794
C         -2.13111       -1.69563       -0.31309
C         -3.00915       -0.54736       -0.01472
C         -2.65452        0.74665       -0.40698
C         -3.46637        1.83163       -0.12738
Cl        -2.99922        3.43654       -0.62532
C         -4.67776        1.66994        0.55015
O         -5.50799        2.68720        0.84774
C         -5.05417        0.38610        0.93360
C         -4.24007       -0.70206        0.65385
O         -4.62740       -1.95965        1.02290
H          6.41772        3.05138        0.29110
H          6.86136        2.32141       -1.25673
H          8.09829        2.51553        0.01537
H          5.87500       -1.43403        1.24726
H          3.60325       -2.41791        1.06067
H          2.25303        1.11009       -0.98919
H          4.50978        2.06785       -0.80759
H          1.47065       -2.25406        0.37263
H          0.33753       -3.75324       -0.99762
H         -3.58069       -3.21696       -0.22331
H         -1.71540        0.89856       -0.92980
H         -5.12209        3.51406        0.51920
H         -6.00181        0.26033        1.45132
H         -5.46589       -1.90693        1.49937
