46
omegacsd_CDBMPI10_01.log	Energy: -649538.6183391
O          2.43647        1.01871       -2.00644
C          2.28038        0.63830       -0.85338
N          1.35445        1.22133       -0.02743
C          0.61438        2.37635       -0.56529
C         -0.72628        2.49791        0.15943
N         -1.35322        1.19003        0.25664
C         -0.62680        0.19157        1.05470
C          0.83525        0.64883        1.20066
C         -1.24880       -0.01410        2.43489
C         -2.66302        1.06438       -0.13702
O         -3.34479        2.02824       -0.45566
C         -3.24939       -0.31983       -0.21118
C         -2.62597       -1.35059       -0.91528
C         -3.24828       -2.58905       -1.03838
C         -4.49088       -2.80578       -0.45005
C         -5.12226       -1.77476        0.24163
C         -4.51053       -0.53103        0.34703
C          1.43810        3.65456       -0.45666
C          3.15214       -0.46221       -0.30877
C          3.82213       -0.35111        0.91080
C          4.69520       -1.35238        1.32456
C          4.89805       -2.47307        0.52467
C          4.24313       -2.58062       -0.69993
C          3.38540       -1.57165       -1.12168
H          0.42087        2.16285       -1.62108
H         -0.59701        2.94562        1.15632
H         -1.39881        3.14914       -0.39947
H         -0.62217       -0.76022        0.51544
H          0.91427        1.38566        2.01230
H          1.43340       -0.21362        1.49347
H         -0.64078       -0.70351        3.03222
H         -1.31561        0.93996        2.97088
H         -2.25518       -0.43497        2.35284
H         -1.66519       -1.17428       -1.39415
H         -2.76394       -3.38409       -1.59932
H         -4.97375       -3.77532       -0.54145
H         -6.09943       -1.93671        0.68902
H         -5.00703        0.29326        0.85212
H          0.88252        4.50648       -0.86430
H          2.36770        3.54821       -1.02190
H          1.68337        3.87246        0.58990
H          3.67722        0.53291        1.52845
H          5.22151       -1.25371        2.27038
H          5.57660       -3.25747        0.84995
H          4.41125       -3.44784       -1.33314
H          2.89635       -1.62409       -2.09045
