66
omegapdb_1z1r_29.log	Energy: -1302674.1179801
C          0.22171       -2.13051        0.17418
C         -0.79153       -2.98075       -0.62413
C         -2.07807       -2.28120       -0.97930
C         -3.20804       -2.38192       -0.16416
C         -4.35358       -1.63878       -0.42537
C         -4.39022       -0.78093       -1.52278
C         -3.29937       -0.72869       -2.39397
C         -2.15669       -1.46664       -2.11191
O         -5.52996       -0.05036       -1.70875
C         -5.38974        1.32798       -2.03907
C         -5.18034        2.22423       -0.82292
C         -3.90813        1.94950       -0.01154
C         -4.17058        1.06028        1.20135
O         -5.28765        0.94345        1.67998
N         -3.09726        0.48366        1.82512
C         -1.76308        0.21634        1.33402
C         -1.29222       -1.07771        2.02573
O         -1.77210       -1.37051        3.11152
N         -0.23406       -1.80091        1.53338
C         -0.77229        1.33985        1.72351
C         -0.69666        2.42989        0.66910
O         -0.47758        2.16895       -0.50740
N         -0.85789        3.70146        1.10989
C          0.77121       -0.90529       -0.57447
O          1.09901       -1.33093       -1.89802
C          2.03808       -0.35383        0.08763
N          3.10401       -1.33360       -0.07103
S          4.57284       -1.06080        0.63938
O          5.40513       -2.19074        0.26978
O          4.30222       -0.70249        2.02092
C          5.24715        0.38442       -0.15614
C          5.01413        1.64132        0.39446
C          5.51054        2.76725       -0.25544
C          6.23062        2.62870       -1.43859
C          6.46570        1.36448       -1.97535
C          5.97480        0.23314       -1.33411
H          1.09107       -2.77605        0.34380
H         -0.28247       -3.32244       -1.53006
H         -1.00796       -3.87072       -0.02065
H         -3.18291       -3.02666        0.71318
H         -5.21305       -1.66666        0.23802
H         -3.33524       -0.11178       -3.28709
H         -1.30026       -1.40740       -2.77953
H         -6.32636        1.59787       -2.53566
H         -4.57848        1.47128       -2.76418
H         -6.03756        2.13102       -0.14924
H         -5.16321        3.25591       -1.19654
H         -3.10075        1.55524       -0.63820
H         -3.52636        2.89344        0.40164
H         -3.33902       -0.06016        2.64758
H         -1.76985        0.09267        0.24896
H         -0.01032       -2.52395        2.20701
H         -1.05685        1.72234        2.70834
H          0.24255        0.93722        1.81285
H         -0.79713        4.45385        0.44031
H         -1.07461        3.91748        2.06906
H          0.03569       -0.09700       -0.62506
H          1.10512       -0.54390       -2.45811
H          2.28761        0.61616       -0.37273
H          1.88284       -0.20071        1.15880
H          3.18798       -1.68758       -1.02033
H          4.47407        1.72342        1.33330
H          5.34255        3.75316        0.16916
H          6.62044        3.51022       -1.94083
H          7.04066        1.25913       -2.89123
H          6.16981       -0.76253       -1.72279
