36
omegapdb_1qxw_08.log	Energy: -410436.9890812
C          4.14973        1.13503        0.48631
C          3.97613        1.66777       -0.91468
C          2.77698        1.46076       -0.05028
N          1.82681        0.43598       -0.38258
C          1.28101       -0.24218        0.77872
C          0.35037       -1.37346        0.35502
C         -0.84260       -0.94001       -0.51861
N         -1.42911       -2.18790       -1.02154
C         -1.81526       -0.00562        0.20584
C         -2.99616        0.42570       -0.66419
C         -3.98490        1.35539        0.04556
C         -3.39048        2.70500        0.44560
O          1.13357       -2.28712       -0.36254
O         -0.20640       -1.99799        1.50074
H          4.59155        1.78411        1.23755
H          4.40733        0.08337        0.59073
H          4.29193        2.68432       -1.13043
H          4.12770        0.97348       -1.73832
H          2.30478        2.35773        0.34908
H          2.25321       -0.26596       -0.98232
H          2.06129       -0.68311        1.42720
H          0.72459        0.47371        1.39366
H         -0.41419       -0.41137       -1.37791
H         -1.96104       -2.63222       -0.27699
H         -2.06144       -2.01030       -1.79420
H         -1.26139        0.88401        0.52987
H         -2.17997       -0.50195        1.11575
H         -3.54078       -0.46546       -1.00535
H         -2.61720        0.92422       -1.56940
H         -4.84471        1.52458       -0.61531
H         -4.37849        0.84919        0.93783
H         -4.15711        3.36341        0.86779
H         -2.95430        3.21340       -0.42297
H         -2.60152        2.59574        1.19751
H          0.47782       -2.78279       -0.89467
H          0.50175       -2.54409        1.86847
