61
omegapdb_1v2k_17.log	Energy: -1425428.6424120
N         -8.53519        1.88728       -1.63124
C         -7.64904        2.73939       -1.12089
C         -6.46483        2.37305       -0.48995
C         -6.14159        1.01456       -0.37367
C         -7.07173        0.11052       -0.91432
C         -8.22296        0.59257       -1.51334
N         -4.95206        0.55781        0.20630
C         -3.96426        1.55169        0.60340
C         -2.58472        0.91432        0.76727
C         -2.64378       -0.26291        1.74995
C         -3.72256       -1.26529        1.32298
C         -5.05696       -0.54197        1.16607
C         -1.27444       -0.84320        2.11192
O         -0.79016       -0.57812        3.20502
N         -0.58922       -1.65907        1.24979
C          0.68422       -2.18676        1.74731
C          1.15458       -3.33142        0.86233
N          1.28401       -2.91537       -0.53841
C          0.30798       -1.93013       -1.01346
C         -0.93310       -1.97978       -0.12936
S          2.78352       -2.86201       -1.24286
O          3.54382       -3.96893       -0.69093
O          2.54856       -2.70294       -2.66697
C          3.54611       -1.35863       -0.66750
C          3.46407       -0.22758       -1.43485
C          4.02097        0.99034       -0.96390
C          4.65455        1.01536        0.30477
C          4.73150       -0.18493        1.06568
C          4.19578       -1.35050        0.59383
C          5.20761        2.23283        0.78025
C          5.12447        3.36130        0.01236
C          4.49844        3.35030       -1.25760
C          3.96095        2.18521       -1.73003
Cl         5.79755        4.85523        0.58980
H         -7.89808        3.79654       -1.20896
H         -5.82731        3.14996       -0.08343
H         -6.88882       -0.95924       -0.90056
H         -8.93989       -0.11023       -1.93622
H         -3.90506        2.31727       -0.17450
H         -4.25670        2.05294        1.54481
H         -2.23547        0.59793       -0.22271
H         -1.88084        1.66992        1.13476
H         -2.96308        0.15474        2.71285
H         -3.82583       -2.05362        2.07815
H         -3.48014       -1.75003        0.37173
H         -5.82024       -1.24565        0.83175
H         -5.38275       -0.15317        2.14811
H          1.43815       -1.38827        1.78016
H          0.54237       -2.53200        2.77506
H          2.11559       -3.71785        1.20762
H          0.44536       -4.16623        0.91439
H          0.72276       -0.91009       -0.97761
H          0.04386       -2.15706       -2.04944
H         -1.39935       -2.97220       -0.20384
H         -1.64691       -1.25453       -0.51611
H          2.99304       -0.26997       -2.41384
H          5.23836       -0.16503        2.02736
H          4.28816       -2.27675        1.15342
H          5.69461        2.26241        1.75080
H          4.45599        4.26679       -1.83747
H          3.47950        2.16214       -2.70472
