40
omegapdb_2byh_04.log	Energy: -1016188.7574420
O          5.98085        1.85493        0.51442
C          5.79129        0.67202        0.30214
C          6.95525       -0.28013        0.12088
C          4.40141        0.12615        0.21572
C          3.33081        1.00898        0.38801
C          2.02773        0.55560        0.31736
C          1.75946       -0.79931        0.07347
C          2.81948       -1.69334       -0.10206
C          4.12417       -1.21901       -0.02898
N          0.40727       -1.17538        0.02174
C         -0.12792       -2.40052       -0.29251
O          0.53432       -3.39349       -0.54425
C         -1.61287       -2.46757       -0.30711
C         -2.31741       -3.68298       -0.48056
N         -3.62466       -3.51053       -0.43219
N         -3.77603       -2.19261       -0.22545
C         -2.60452       -1.50657       -0.15729
C         -2.58916       -0.04516        0.06009
C         -2.05983        0.82367       -0.89871
C         -2.05070        2.19068       -0.68856
Cl        -1.38557        3.26672       -1.88528
C         -2.58983        2.73340        0.48991
O         -2.61430        4.05348        0.74306
C         -3.11906        1.87739        1.44948
C         -3.11714        0.50264        1.24511
O         -3.64160       -0.26457        2.22840
H          7.88514        0.28396        0.20630
H          6.91245       -0.76741       -0.85945
H          6.93585       -1.06751        0.88253
H          3.54914        2.05613        0.57560
H          1.20025        1.25263        0.44542
H          2.61416       -2.73777       -0.29320
H          4.93578       -1.92901       -0.16662
H         -0.24814       -0.43588        0.23358
H         -1.88821       -4.66460       -0.62915
H         -4.70459       -1.79495       -0.23964
H         -1.65153        0.42070       -1.82179
H         -2.21750        4.53242       -0.00072
H         -3.52511        2.28852        2.36715
H         -3.49016       -1.20051        2.02960
