39
omegacsd_GALSEM_11.log	Energy: -1046257.3830793
S         -2.55096        0.28209        1.43597
O         -1.49330        0.05391        2.42012
O         -3.84185        0.78120        1.84703
N         -2.71971       -1.25411        0.75297
C         -3.66389       -1.56801       -0.22433
O         -4.28186       -0.70783       -0.80844
C         -3.81437       -3.05621       -0.47792
C         -4.71227       -3.34094       -1.67389
C         -1.93616        1.27837        0.12577
C         -0.56525        1.32453       -0.22495
N          0.39451        0.63116        0.45748
C          1.79595        0.80088        0.29397
C          2.59004       -0.33187        0.13674
C          3.97100       -0.20095        0.03812
C          4.56884        1.05436        0.07868
C          3.77288        2.18459        0.23142
C          2.39344        2.06161        0.35050
C          4.81916       -1.42353       -0.18490
F          4.24465       -2.52882        0.32282
F          6.03119       -1.29606        0.38279
F          5.02041       -1.65009       -1.49634
C         -0.26544        2.11192       -1.35329
C         -1.27772        2.79185       -2.00068
N         -2.57044        2.77688       -1.64726
C         -2.87263        2.01547       -0.60526
H         -2.27423       -1.98208        1.29892
H         -2.81720       -3.49347       -0.61797
H         -4.22440       -3.50928        0.43481
H         -4.82661       -4.41925       -1.81673
H         -5.70113       -2.89969       -1.52743
H         -4.29211       -2.91124       -2.58726
H          0.09139        0.17987        1.31424
H          2.12420       -1.31162        0.09455
H          5.64797        1.14464        0.00109
H          4.23197        3.16787        0.27869
H          1.77229        2.94109        0.49801
H          0.75329        2.18094       -1.71779
H         -1.03452        3.39898       -2.87155
H         -3.91786        1.96638       -0.31244
