39
omegacsd_FIBREN_13.log	Energy: -667547.2397990
N         -2.60090        1.50917        1.27920
C         -1.29431        1.70218        1.12501
N         -0.46395        0.99528        0.32229
C         -0.94300       -0.01012       -0.42303
C         -2.31881       -0.29030       -0.32466
C         -3.03952        0.50539        0.53130
O         -4.32898        0.08078        0.48024
C         -4.30932       -0.95983       -0.41575
N         -3.15347       -1.22653       -0.92436
C         -5.60766       -1.63057       -0.67587
N         -0.14286       -0.72319       -1.24060
C          1.29398       -0.56017       -1.44768
C          1.67522        0.87235       -1.93926
C          2.56288        1.72948       -1.03329
O          3.63179        2.14519       -1.41232
O          2.08535        2.01459        0.17475
C          2.14817       -1.09492       -0.29761
C          1.59204       -1.70206        0.82542
C          2.40964       -2.22512        1.82473
C          3.79234       -2.15382        1.70806
C          4.35567       -1.55625        0.58370
C          3.54045       -1.03392       -0.41237
C         -0.64854        2.79951        1.92009
H         -6.00883       -2.06222        0.24617
H         -5.45744       -2.42171       -1.41139
H         -6.34003       -0.91265       -1.05737
H         -0.60094       -1.48099       -1.72528
H          1.49508       -1.21938       -2.29875
H          2.21982        0.79870       -2.88238
H          0.75237        1.42616       -2.14355
H          1.20221        1.58075        0.29906
H          0.51298       -1.77503        0.92649
H          1.95851       -2.69027        2.69760
H          4.42996       -2.55999        2.48891
H          5.43552       -1.49090        0.48109
H          3.99608       -0.55412       -1.27606
H         -1.41175        3.39474        2.42267
H         -0.04020        3.43788        1.27232
H          0.02431        2.37043        2.67065
