46
omegacsd_CDBMPI10_07.log	Energy: -649538.6115306
O         -2.35446        1.53047       -1.60321
C         -2.16910        0.94582       -0.54591
N         -1.41914        1.50626        0.46851
C         -0.67649        0.71081        1.45454
C          0.83840        1.00048        1.30499
N          1.19988        1.30957       -0.06428
C          0.52828        2.47877       -0.65702
C         -0.75603        2.75931        0.13371
C          1.45630        3.68650       -0.70506
C          1.93655        0.51438       -0.90316
O          1.99853        0.73469       -2.10498
C          2.70883       -0.64074       -0.32053
C          2.60604       -1.87716       -0.95816
C          3.35595       -2.95916       -0.51277
C          4.23864       -2.80491        0.55351
C          4.36923       -1.56526        1.17248
C          3.60316       -0.48683        0.73992
C         -1.11056        0.99782        2.88937
C         -2.79413       -0.40207       -0.31634
C         -3.49846       -0.72062        0.84492
C         -4.11980       -1.95951        0.96940
C         -4.03137       -2.88915       -0.06236
C         -3.33934       -2.57006       -1.22848
C         -2.73538       -1.32565       -1.36122
H         -0.84635       -0.34473        1.22452
H          1.39713        0.13371        1.65678
H          1.11657        1.84521        1.95220
H          0.24489        2.19471       -1.67358
H         -1.42970        3.36955       -0.46815
H         -0.54241        3.30020        1.06441
H          1.80178        3.95833        0.30034
H          2.32776        3.46336       -1.32693
H          0.94014        4.55188       -1.13594
H          1.94060       -1.97448       -1.81154
H          3.26075       -3.92287       -1.00618
H          4.83287       -3.64859        0.89511
H          5.07355       -1.43490        1.99006
H          3.71632        0.48549        1.21542
H         -0.47051        0.45673        3.59605
H         -1.02997        2.06837        3.11122
H         -2.14451        0.69198        3.06701
H         -3.58635        0.01458        1.64036
H         -4.67729       -2.19651        1.87190
H         -4.51093       -3.85949        0.03796
H         -3.27936       -3.29022       -2.04026
H         -2.21711       -1.05094       -2.27577
