44
omegacsd_CUHNEY10_15.log	Energy: -1049276.4765098
Cl        -4.25340       -4.13740       -0.15707
C         -3.43678       -2.61248       -0.02994
C         -3.63855       -1.62933       -0.99025
N         -3.02921       -0.44888       -0.95174
C         -2.21668       -0.19256        0.06689
N         -1.60350        1.07898        0.07513
C         -2.17365        2.24392       -0.47154
O         -3.26550        2.37335       -0.95513
C         -1.13182        3.30387       -0.25353
N         -1.19265        4.57575       -0.62758
C         -0.10697        5.27594       -0.29559
C          0.98474        4.71598        0.38150
N          1.02781        3.43524        0.75733
C         -0.06001        2.75656        0.42201
C         -0.31187        1.29954        0.70521
O          0.68964        0.50148        0.10045
C          1.37330       -0.35095        0.92614
O          1.08844       -0.51268        2.09992
N          2.37866       -0.97135        0.27207
C          3.17425       -1.97351        0.97391
C          4.66333       -1.68826        0.75455
N          5.03327       -1.55638       -0.64847
C          4.20370       -0.54934       -1.29445
C          2.69726       -0.79412       -1.14211
C          5.08534       -2.81944       -1.36315
C         -1.94172       -1.11920        1.07964
C         -2.56329       -2.35616        1.01907
H         -4.30778       -1.80838       -1.82931
H         -0.09444        6.32677       -0.57551
H          1.84906        5.32888        0.62674
H         -0.32510        1.08481        1.77730
H          2.90930       -2.97107        0.59449
H          2.91496       -1.93291        2.03264
H          5.26532       -2.48334        1.20918
H          4.91606       -0.74779        1.26185
H          4.46377       -0.50000       -2.35812
H          4.44209        0.42476       -0.84705
H          2.12936        0.04745       -1.53662
H          2.39122       -1.69554       -1.69238
H          5.46232       -2.64318       -2.37637
H          4.12088       -3.35033       -1.45133
H          5.78889       -3.48881       -0.85661
H         -1.24467       -0.90042        1.88210
H         -2.37832       -3.10852        1.77985
