66
omegapdb_1z1r_05.log	Energy: -1302684.0272519
C         -0.00100       -0.15403       -0.55127
C         -0.14827       -1.59615       -0.01787
C          1.18944       -2.29041        0.06771
C          1.89436       -2.63585       -1.08744
C          3.21894       -3.04884       -1.01981
C          3.85871       -3.12486        0.21564
C          3.14233       -2.88175        1.38461
C          1.81943       -2.45891        1.30135
O          5.19512       -3.43088        0.24434
C          6.04640       -2.39602        0.74136
C          6.08210       -1.13819       -0.12936
C          4.98138       -0.10979        0.14232
C          5.11100        1.09242       -0.78124
O          5.96426        1.16141       -1.64693
N          4.22810        2.13779       -0.59822
C          2.99675        2.10644        0.16521
C          1.85867        1.45459       -0.64049
O          1.59860        1.85182       -1.76774
N          1.20517        0.45258       -0.01185
C          2.59371        3.54579        0.49488
C          1.33858        3.61995        1.35016
O          0.86370        2.63530        1.91262
N          0.78834        4.84676        1.46945
C         -1.19525        0.74855       -0.18841
O         -1.31925        0.88085        1.21910
C         -2.52897        0.22336       -0.69683
N         -3.55505        1.18005       -0.30274
S         -5.10846        0.96677       -0.82731
O         -5.03680        0.76723       -2.26432
O         -5.87846        2.03876       -0.22175
C         -5.67905       -0.56500       -0.11633
C         -6.29295       -0.54664        1.13325
C         -6.70355       -1.74643        1.70279
C         -6.49916       -2.94682        1.02603
C         -5.89184       -2.95284       -0.22669
C         -5.47971       -1.75731       -0.80694
H          0.12257       -0.15889       -1.63977
H         -0.60940       -1.54950        0.97613
H         -0.83685       -2.14442       -0.67139
H          1.41788       -2.53048       -2.06075
H          3.78768       -3.27357       -1.91766
H          3.63002       -2.99230        2.34977
H          1.27367       -2.22987        2.21582
H          7.03663       -2.85833        0.75924
H          5.77684       -2.14839        1.77926
H          7.05114       -0.64713        0.01580
H          6.05754       -1.43753       -1.18236
H          3.98379       -0.54315        0.00080
H          5.02374        0.22705        1.18816
H          4.23032        2.76640       -1.39302
H          3.16954        1.56469        1.09933
H          1.36783        0.34571        0.97956
H          3.41834        4.04527        1.01718
H          2.42054        4.08510       -0.44507
H         -0.05624        4.94701        2.01275
H          1.13190        5.64367        0.95766
H         -1.01855        1.73086       -0.64996
H         -0.67338        1.54206        1.52425
H         -2.72309       -0.77620       -0.27742
H         -2.51964        0.15365       -1.78869
H         -3.50691        1.41532        0.68517
H         -6.46308        0.40255        1.63337
H         -7.19129       -1.74405        2.67368
H         -6.82391       -3.88217        1.47432
H         -5.74661       -3.88949       -0.75794
H         -5.03120       -1.73590       -1.79609
