34
omegapdb_2f7p_17.log	Energy: -719056.9259155
C         -1.07381       -0.14675       -0.86331
N          0.29108       -0.34896       -0.39747
C          1.20538        0.75914       -0.67326
C          2.61072        0.43369       -0.21993
C          3.22328       -0.75717       -0.61809
C          4.52075       -1.05316       -0.21876
C          5.22563       -0.16036        0.58643
C          4.62349        1.02595        0.98962
C          3.32122        1.31763        0.58962
C         -1.82343       -1.52282       -0.86079
O         -0.94112       -2.61310       -0.77514
C         -2.72339       -1.45199        0.37921
O         -1.91070       -1.62123        1.52236
C         -3.22608       -0.01791        0.30795
O         -3.90872        0.37655        1.46977
C         -1.94087        0.77691        0.03383
S         -2.20304        2.42471       -0.69790
H         -1.00678        0.24140       -1.88682
H          0.26575       -0.52630        0.60586
H          1.19168        0.92740       -1.75833
H          0.87530        1.70164       -0.20826
H          2.67051       -1.45354       -1.24454
H          4.98618       -1.98258       -0.53735
H          6.24099       -0.39118        0.89851
H          5.16501        1.72586        1.62102
H          2.85119        2.24546        0.91089
H         -2.43827       -1.61128       -1.76745
H         -0.04984       -2.20998       -0.81287
H         -3.54449       -2.18184        0.36330
H         -1.37447       -2.40369        1.31105
H         -3.88303        0.05145       -0.57478
H         -4.40177        1.17880        1.25668
H         -1.43514        0.90745        0.99480
H         -2.47483        3.07157        0.44598
