50
omegapdb_1xom_09.log	Energy: -710687.1220566
O         -5.96873        1.65945        0.67637
C         -5.06984        1.42303       -0.30085
O         -5.40028        1.23491       -1.44776
C         -3.65499        1.41378        0.23766
C         -3.52095        0.33061        1.34159
C         -2.11066       -0.25144        1.35514
C         -1.81631       -1.04217        0.04717
C         -2.38817       -0.26267       -1.18581
C         -2.63258        1.21776       -0.89182
C         -2.55031       -2.32093        0.14217
N         -3.15361       -3.30388        0.23982
C         -0.31396       -1.32249       -0.05327
C          0.24352       -2.52314        0.36565
C          1.62306       -2.73516        0.31614
C          2.47346       -1.74095       -0.15230
O          3.82353       -1.85317       -0.25573
C          4.40323       -3.08745        0.11143
C          1.92014       -0.51289       -0.56682
C          0.55087       -0.32161       -0.51348
O          2.71415        0.47481       -1.08288
C          3.53753        1.15677       -0.13725
C          2.77482        2.10628        0.78728
C          3.88514        3.02172        1.31462
C          4.87477        3.17903        0.13003
C          4.49840        2.07747       -0.88614
H         -6.84280        1.62326        0.25368
H         -3.49829        2.39690        0.69960
H         -4.23642       -0.48429        1.16901
H         -3.77591        0.75670        2.31594
H         -1.96561       -0.91430        2.21458
H         -1.36627        0.54881        1.44417
H         -3.34276       -0.70570       -1.48944
H         -1.70700       -0.38272       -2.03355
H         -2.99836        1.70488       -1.80004
H         -1.69578        1.71576       -0.61661
H         -0.39574       -3.32599        0.72389
H          2.01809       -3.69322        0.63742
H          4.01879       -3.90824       -0.50707
H          5.47532       -2.97817       -0.05814
H          4.22365       -3.31657        1.16980
H          0.17863        0.63910       -0.85948
H          4.09385        0.41885        0.45541
H          2.05783        2.67340        0.17807
H          2.21844        1.59226        1.57825
H          4.38666        2.54036        2.16284
H          3.50204        3.98092        1.67597
H          4.79133        4.17037       -0.32633
H          5.91014        3.07770        0.47041
H          3.95162        2.49786       -1.73804
H          5.36150        1.53798       -1.28604
