40
omegapdb_2byh_05.log	Energy: -1016189.7573407
O         -6.86998       -2.22644       -0.22379
C         -6.68677       -1.12526        0.25885
C         -7.81459       -0.38507        0.94912
C         -5.34327       -0.47224        0.18434
C         -5.08112        0.79043        0.72112
C         -3.81644        1.34696        0.62324
C         -2.78020        0.65219       -0.01293
C         -3.03095       -0.61488       -0.55423
C         -4.30330       -1.15576       -0.44892
N         -1.53255        1.29431       -0.07899
C         -0.33480        0.80610       -0.55566
O         -0.20267       -0.33741       -0.96709
C          0.74235        1.82469       -0.53535
C          0.54496        3.21021       -0.75116
N          1.66990        3.89406       -0.66461
N          2.59273        2.96545       -0.39457
C          2.11828        1.70047       -0.30659
C          3.01191        0.56508       -0.00550
C          2.67862       -0.73362       -0.40125
C          3.50556       -1.80669       -0.12000
Cl         3.06529       -3.41737       -0.62248
C          4.71143       -1.62757        0.56306
O          5.55583       -2.63252        0.86239
C          5.06652       -0.33886        0.95042
C          4.23721        0.73724        0.66898
O          4.60396        1.99992        1.04246
H         -8.00710        0.57691        0.46107
H         -7.56439       -0.18121        1.99633
H         -8.71428       -1.00054        0.90502
H         -5.86435        1.35335        1.22225
H         -3.62577        2.33193        1.04581
H         -2.23233       -1.15856       -1.03965
H         -4.51546       -2.13693       -0.86389
H         -1.49279        2.20436        0.35605
H         -0.37670        3.72171       -1.00370
H          3.54380        3.24345       -0.20338
H          1.74428       -0.89909       -0.92868
H          5.18369       -3.46456        0.53099
H          6.00988       -0.19967        1.47253
H          5.44157        1.95855        1.52158
