36
omegapdb_1qxw_23.log	Energy: -410435.3941818
C          3.60985       -2.04829       -0.20119
C          4.74137       -1.05225       -0.12461
C          3.35547       -0.62972        0.23379
N          2.66052        0.30338       -0.62294
C          1.21800        0.08225       -0.71861
C          0.50222        0.89170        0.37125
C         -1.01133        1.08884        0.13280
N         -1.32834        1.96681       -0.98655
C         -1.75981       -0.23682       -0.00105
C         -3.27669       -0.07771        0.08312
C         -4.02589       -1.39546       -0.10491
C         -5.54021       -1.23204       -0.00052
O          1.06888        2.16829        0.44529
O          0.71762        0.19276        1.58841
H          3.26904       -2.33975       -1.19244
H          3.56122       -2.83917        0.54174
H          5.15528       -0.68947       -1.06348
H          5.47624       -1.15165        0.66878
H          3.12887       -0.47449        1.28397
H          3.08061        0.30085       -1.54594
H          0.87773        0.45317       -1.69171
H          0.95019       -0.97992       -0.63343
H         -1.37252        1.59424        1.04285
H         -0.71877        2.77913       -0.94120
H         -1.13016        1.49581       -1.86648
H         -1.50010       -0.70353       -0.96525
H         -1.40729       -0.91977        0.78131
H         -3.53844        0.35217        1.06131
H         -3.60459        0.65194       -0.66766
H         -3.76915       -1.82253       -1.08459
H         -3.68066       -2.12187        0.64414
H         -5.82518       -0.83659        0.98168
H         -6.05970       -2.18603       -0.14111
H         -5.91174       -0.53185       -0.75800
H          2.01244        2.01945        0.23228
H          0.51160        0.82710        2.28956
