57
omegacsd_SPIRIL_13.log	Energy: -797193.9002895
C          1.26819        0.12030       -0.94054
C          2.07718        0.56349        0.30555
C          1.37075        1.74722        0.98499
O          0.18599        1.83340        1.24100
N          2.31667        2.67310        1.27569
C          3.62710        2.35881        0.77460
N          3.39333        1.15004        0.00554
C          4.49760        0.47369       -0.50882
C          4.38641       -0.77586       -1.14286
C          5.50327       -1.40869       -1.67159
C          6.76495       -0.82761       -1.59542
C          6.88545        0.40994       -0.97608
C          5.77700        1.05437       -0.43847
C          2.15567       -0.58966        1.32899
C          0.79664       -1.24721        1.59073
N          0.05420       -1.55637        0.36392
C         -0.61114       -2.84470        0.41623
C         -1.85930       -2.83045        1.31262
C         -2.98101       -2.04657        0.69065
C         -3.32350       -0.77744        0.94345
C         -4.40791       -0.14276        0.13685
C         -4.43546       -0.28301       -1.25501
C         -5.45060        0.27713       -2.02282
C         -6.44874        0.99163       -1.38236
C         -6.45635        1.16282       -0.00729
C         -5.43056        0.59782        0.74104
F         -7.43585        1.54159       -2.11599
C         -2.64021        0.08810        1.97284
C          0.79504       -1.33107       -0.86314
H          0.37210        0.74532       -1.00763
H          1.86158        0.28572       -1.84503
H          2.07420        3.55345        1.70222
H          4.34488        2.19764        1.59732
H          4.01613        3.16468        0.13569
H          3.42271       -1.25998       -1.23419
H          5.37665       -2.37526       -2.15346
H          7.63405       -1.32795       -2.01230
H          7.85787        0.89096       -0.90216
H          5.92200        2.02049        0.03371
H          2.86821       -1.33314        0.95655
H          2.56423       -0.21482        2.27569
H          0.19259       -0.59027        2.22815
H          0.98381       -2.17141        2.16310
H          0.07906       -3.64126        0.75931
H         -0.91951       -3.11245       -0.60241
H         -1.59217       -2.43816        2.30064
H         -2.17945       -3.86933        1.46611
H         -3.54073       -2.57837       -0.08113
H         -3.63216       -0.82771       -1.74456
H         -5.47143        0.17586       -3.10354
H         -7.25806        1.72754        0.45842
H         -5.44059        0.72193        1.82118
H         -3.33550        0.80375        2.42319
H         -2.20385       -0.50440        2.78260
H         -1.82993        0.66362        1.50899
H          1.63817       -2.04086       -0.98694
H          0.11776       -1.51639       -1.70451
