24
omegapdb_1gs5_02.log	Energy: -441849.4473456
C         -0.60758        0.58365        0.79646
C         -1.13831        1.44463       -0.34615
O         -0.91974        1.26356       -1.52007
O         -1.80527        2.51448        0.11819
C          0.80876        1.05143        1.17078
C          1.85194        0.98339        0.04650
C          2.58041       -0.33188       -0.05245
O          2.20715       -1.39894        0.39175
O          3.73517       -0.21436       -0.72262
N         -0.62345       -0.80849        0.43229
C         -1.80205       -1.38206        0.07245
O         -2.84290       -0.73931        0.05955
C         -1.73833       -2.84191       -0.31951
H         -1.26958        0.75393        1.65318
H         -2.08244        3.02034       -0.66350
H          0.72463        2.09021        1.50661
H          1.14721        0.46545        2.03261
H          1.38332        1.16052       -0.93068
H          2.60839        1.76450        0.16908
H          4.11784       -1.10642       -0.77209
H          0.24850       -1.32448        0.44272
H         -2.52248       -3.38451        0.21392
H         -1.94732       -2.92518       -1.39015
H         -0.76831       -3.30176       -0.11054
