34
omegapdb_2f7p_02.log	Energy: -719059.8929811
C         -0.59595       -0.43210        0.08708
N          0.12441       -1.06514        1.16140
C          1.27564       -0.34655        1.68639
C          2.42153       -0.30912        0.69345
C          2.75092       -1.44572       -0.04847
C          3.81999       -1.42401       -0.93768
C          4.57511       -0.26407       -1.09736
C          4.25055        0.87346       -0.36547
C          3.17650        0.85008        0.52106
C         -1.78068       -1.30291       -0.35050
O         -2.54389       -1.79596        0.74469
C         -2.64464       -0.34416       -1.17614
O         -3.96132       -0.81847       -1.36282
C         -2.62671        0.94460       -0.32540
O         -3.59007        0.79444        0.71743
C         -1.23006        0.98260        0.33147
S         -0.19336        2.38768       -0.18191
H          0.08607       -0.35677       -0.77219
H         -0.52100       -1.33957        1.89380
H          1.04530        0.68556        1.99979
H          1.60082       -0.88450        2.58574
H          2.15042       -2.34376        0.07625
H          4.06668       -2.31659       -1.50789
H          5.40977       -0.24705       -1.79384
H          4.82836        1.78610       -0.48973
H          2.91298        1.74679        1.07878
H         -1.44750       -2.18430       -0.90467
H         -2.95956       -1.01706        1.16244
H         -2.18499       -0.16110       -2.15552
H         -4.04674       -1.58120       -0.76742
H         -2.84150        1.84996       -0.90437
H         -4.40182        0.51877        0.25846
H         -1.38468        1.13886        1.40512
H          0.31939        1.82627       -1.28879
