44
omegacsd_CUHNEY10_12.log	Energy: -1049278.7206342
Cl         3.20160        4.13599       -0.50363
C          1.72112        3.25726       -0.30140
C          1.54825        2.02899       -0.92153
N          0.43292        1.31452       -0.79416
C         -0.55579        1.79683       -0.04474
N         -1.68758        0.96494        0.02856
C         -2.87723        1.24807        0.70090
O         -3.13978        2.23980        1.34127
C         -3.75748        0.06668        0.43696
N         -4.99887       -0.11307        0.87041
C         -5.52914       -1.27183        0.47859
C         -4.83282       -2.20052       -0.30773
N         -3.58384       -2.00323       -0.73484
C         -3.07300       -0.84387       -0.34406
C         -1.68944       -0.33432       -0.65348
O         -0.71150       -1.17931       -0.09746
C          0.25471       -1.60877       -0.97779
O          0.08843       -1.66546       -2.17725
N          1.37484       -1.99549       -0.32771
C          1.66448       -1.68475        1.07020
C          3.11789       -1.22554        1.17363
N          4.07941       -2.22809        0.70798
C          3.50340       -3.16527       -0.24993
C          2.48194       -2.48540       -1.14654
C          4.75296       -2.93223        1.77954
C         -0.47770        3.02870        0.61962
C          0.68785        3.76329        0.48050
H          2.33220        1.60580       -1.54647
H         -6.54707       -1.48119        0.79884
H         -5.30816       -3.13472       -0.59786
H         -1.50213       -0.22635       -1.72491
H          1.48903       -2.56474        1.70452
H          0.99170       -0.89385        1.40480
H          3.22652       -0.30373        0.58432
H          3.34371       -0.96645        2.21353
H          3.00955       -4.01724        0.25717
H          4.30611       -3.58501       -0.86851
H          2.08894       -3.18847       -1.88492
H          2.94931       -1.65695       -1.69644
H          5.50691       -3.60454        1.35477
H          4.07108       -3.54434        2.40180
H          5.27074       -2.22055        2.43030
H         -1.30692        3.38505        1.21541
H          0.79598        4.72426        0.97463
