45
omegacsd_SEYMIS_08.log	Energy: -753204.5088905
O          4.10226       -2.42621        0.92452
N          4.62262       -1.21942        0.51495
C          3.60397       -0.41924        0.31867
C          2.36737       -1.10531        0.58609
C          0.95950       -0.61278        0.51589
O          0.57534        0.40731        1.06517
N          0.13291       -1.43744       -0.19648
C         -1.24301       -1.23133       -0.41221
C         -2.02959       -2.05905       -1.19265
N         -3.30400       -1.58415       -1.18678
C         -4.41053       -2.20157       -1.90109
C         -3.34276       -0.45501       -0.40452
C         -2.07416       -0.21023        0.09122
C         -4.58014        0.30067       -0.19237
O         -5.66409        0.01645       -0.66398
O         -4.37258        1.36320        0.59906
C         -5.53048        2.16764        0.86934
C         -5.08365        3.31172        1.75310
C          2.76711       -2.35285        0.96217
C          2.05013       -3.57806        1.41419
C          3.86151        0.95081       -0.17956
C          4.96629        1.16850       -1.01037
C          5.24865        2.44435       -1.48005
C          4.43105        3.51514       -1.12620
C          3.33458        3.30281       -0.29730
C          3.04681        2.02731        0.17904
H          0.56905       -2.17924       -0.72309
H         -1.77224       -2.95005       -1.75121
H         -4.84366       -1.50133       -2.61687
H         -4.02289       -3.07623       -2.42802
H         -5.19383       -2.50743       -1.20577
H         -1.78302        0.60607        0.73234
H         -5.94822        2.51938       -0.07944
H         -6.28915        1.54488        1.35444
H         -4.65949        2.93516        2.68850
H         -4.32436        3.91653        1.24877
H         -5.93702        3.95414        1.99235
H          2.46223       -3.92186        2.36737
H          0.98574       -3.37148        1.54394
H          2.16951       -4.38938        0.68814
H          5.59775        0.32728       -1.28187
H          6.10726        2.60286       -2.12751
H          4.64941        4.51342       -1.49744
H          2.69606        4.13536       -0.01338
H          2.19283        1.86198        0.82833
