45
omegacsd_FABSOQ10_02.log	Energy: -924265.8149747
S          0.04482        0.49122       -0.02508
C          1.05238        1.59429       -0.91112
C          0.59421        2.86958       -0.79033
C         -0.57722        2.97325        0.02401
C         -1.00147        1.76968        0.49628
C         -2.17259        1.51916        1.42317
O         -2.88069        2.72955        1.65119
C         -3.10835        0.42056        0.95283
C         -3.77233       -0.37947        1.88990
C         -4.69669       -1.32796        1.49272
C         -4.98765       -1.49658        0.13389
O         -5.90642       -2.45311       -0.15679
C         -6.22817       -2.66261       -1.51522
C         -4.34097       -0.70479       -0.81407
C         -3.40882        0.24362       -0.39420
C          2.19929        1.10174       -1.75828
O          1.73300        0.43526       -2.92347
C          3.21445        0.26025       -0.99186
C          3.52333        0.52150        0.33953
C          4.48817       -0.21793        1.02142
C          5.15976       -1.24626        0.36124
O          6.11039       -2.03690        0.92737
C          6.44153       -1.79669        2.27730
C          4.86263       -1.51500       -0.97787
C          3.90613       -0.76657       -1.64260
H          1.07245        3.71466       -1.27653
H         -1.07897        3.90210        0.27009
H         -1.77996        1.24180        2.40924
H         -3.45145        2.86725        0.88261
H         -3.55954       -0.24990        2.94926
H         -5.21142       -1.95675        2.21313
H         -6.65371       -1.75925       -1.97097
H         -5.34910       -2.97848       -2.09164
H         -6.97399       -3.45864       -1.52944
H         -4.54272       -0.81817       -1.87392
H         -2.89812        0.84649       -1.14305
H          2.70268        1.99508       -2.14801
H          1.25974       -0.35708       -2.63208
H          3.00217        1.31774        0.86677
H          4.69652        0.01348        2.06074
H          6.84385       -0.78510        2.41931
H          5.57402       -1.93499        2.93571
H          7.20880       -2.52832        2.53546
H          5.39905       -2.31765       -1.47567
H          3.68661       -0.97084       -2.68662
