36
omegapdb_1qxw_00.log	Energy: -410439.0481292
C         -3.96899       -1.81288        0.28435
C         -4.95413       -0.68447        0.41575
C         -3.78106       -0.55158       -0.50589
N         -2.71687        0.32229       -0.09940
C         -1.42779        0.00282       -0.70026
C         -0.38028        0.88917       -0.02935
C          1.07467        0.66320       -0.47914
N          1.83933        1.74711        0.14723
C          1.58475       -0.75672       -0.20742
C          3.05357       -0.98642       -0.60092
C          4.05915       -0.77970        0.53494
C          5.50200       -0.99571        0.08679
O         -0.40476        0.66615        1.36146
O         -0.74791        2.21001       -0.33898
H         -3.28179       -1.97280        1.11055
H         -4.27634       -2.71291       -0.24007
H         -4.92302       -0.09912        1.32987
H         -5.94136       -0.80367       -0.02089
H         -3.98722       -0.61584       -1.57890
H         -2.94335        1.28908       -0.31778
H         -1.21346       -1.05066       -0.49326
H         -1.40122        0.15530       -1.79201
H          1.10008        0.84870       -1.56176
H          1.92255        1.56396        1.14442
H          2.77559        1.80524       -0.23927
H          0.95142       -1.45670       -0.76694
H          1.43406       -0.98689        0.85527
H          3.17451       -2.01214       -0.97350
H          3.31897       -0.33452       -1.44830
H          3.95092        0.22774        0.95718
H          3.81659       -1.47410        1.35061
H          5.78146       -0.28514       -0.70041
H          5.64021       -2.00563       -0.31732
H          6.20529       -0.86834        0.91643
H         -1.35207        0.63408        1.58134
H          0.04100        2.73305       -0.10312
