40
omegapdb_2byh_01.log	Energy: -1016188.8253574
O         -5.97186        1.60080       -0.82653
C         -5.74093        0.48878       -0.38957
C         -6.86369       -0.39550        0.11225
C         -4.34114       -0.03374       -0.33528
C         -3.30873        0.78799       -0.79769
C         -1.99757        0.35348       -0.76889
C         -1.68281       -0.92285       -0.27913
C         -2.70484       -1.75519        0.18715
C         -4.01751       -1.29953        0.15481
N         -0.32830       -1.28855       -0.28690
C          0.27231       -2.38033        0.30155
O         -0.34593       -3.29409        0.82142
C          1.75380       -2.40206        0.22891
C          2.49128       -3.60625        0.29201
N          3.78748       -3.40193        0.14983
N          3.89859       -2.07298        0.01994
C          2.71989       -1.41068        0.05771
C          2.64802        0.06167       -0.00687
C          1.72489        0.76258        0.77239
C          1.61246        2.14133        0.69777
Cl         0.43296        2.98569        1.65976
C          2.44993        2.87759       -0.14750
O          2.39401        4.21624       -0.26568
C          3.40071        2.19672       -0.90459
C          3.50292        0.81402       -0.83400
O          4.43936        0.13580       -1.55187
H         -6.72069       -0.64111        1.17051
H         -7.80903        0.13447       -0.01279
H         -6.89738       -1.33881       -0.44398
H         -3.56302        1.77411       -1.17505
H         -1.19929        1.00603       -1.12041
H         -2.46223       -2.73823        0.56743
H         -4.79895       -1.96085        0.52082
H          0.28829       -0.63520       -0.74837
H          2.09345       -4.60377        0.42181
H          4.80229       -1.66123       -0.15701
H          1.07542        0.21968        1.45236
H          1.70257        4.56091        0.32051
H          4.05638        2.77850       -1.54743
H          4.92885        0.75490       -2.10919
