45
omegacsd_FABSOQ10_05.log	Energy: -924264.9562845
S         -0.21266        0.04419        0.18640
C         -0.90691        1.57485       -0.22503
C         -0.28315        2.59646        0.42192
C          0.78296        2.14370        1.25998
C          0.94942        0.79362        1.22576
C          2.00738       -0.01902        1.92137
O          1.39242       -1.21061        2.38289
C          3.19704       -0.31799        1.02137
C          4.33160        0.48183        1.05169
C          5.42028        0.23502        0.21527
C          5.37312       -0.84176       -0.66855
O          6.37201       -1.18199       -1.52599
C          7.53374       -0.38193       -1.52681
C          4.23749       -1.65876       -0.70410
C          3.16542       -1.39642        0.12987
C         -2.05044        1.67679       -1.20389
O         -2.51100        3.01843       -1.13778
C         -3.16664        0.68941       -0.92120
C         -3.90620        0.79149        0.25471
C         -4.94562       -0.08940        0.53294
C         -5.25541       -1.09903       -0.38255
O         -6.24715       -2.01303       -0.21347
C         -7.00037       -1.95116        0.97822
C         -4.52262       -1.20983       -1.56625
C         -3.49206       -0.31968       -1.82832
H         -0.58281        3.63094        0.30353
H          1.40127        2.80110        1.86453
H          2.36526        0.58723        2.76995
H          2.09851       -1.80225        2.67520
H          4.37753        1.32291        1.74205
H          6.28985        0.88162        0.26888
H          8.03416       -0.39871       -0.54970
H          8.19768       -0.81210       -2.27829
H          7.30653        0.65766       -1.79673
H          4.22318       -2.49229       -1.40026
H          2.28547       -2.03485        0.09563
H         -1.65923        1.46709       -2.21435
H         -3.30556        3.06854       -1.68403
H         -3.65806        1.57539        0.96691
H         -5.49806        0.01576        1.46071
H         -7.53139       -0.99471        1.06984
H         -6.36655       -2.09746        1.86232
H         -7.72814       -2.76187        0.91825
H         -4.78229       -1.99968       -2.26476
H         -2.92923       -0.41283       -2.75583
