57
omegacsd_SPIRIL_19.log	Energy: -797193.1106567
C          2.51049       -1.18029        1.05556
C          3.49722       -1.12538       -0.14018
C          4.32265       -2.41947       -0.04424
O          3.87723       -3.54501       -0.14817
N          5.61201       -2.07507        0.18054
C          5.83489       -0.65858        0.29319
N          4.54434       -0.10138       -0.06050
C          4.37884        1.28132       -0.01887
C          5.47089        2.10797        0.30297
C          5.33635        3.49197        0.33007
C          4.12099        4.09839        0.04194
C          3.03775        3.28607       -0.28114
C          3.15257        1.90262       -0.31622
C          2.74145       -1.14540       -1.49870
C          1.24239       -1.36125       -1.31399
N          0.71005       -0.33120       -0.43577
C         -0.71863       -0.10535       -0.53930
C         -1.62603       -1.30027       -0.17493
C         -3.07950       -0.94583       -0.33319
C         -3.88693       -0.43585        0.60679
C         -5.29924       -0.08506        0.28051
C         -6.32020       -0.26089        1.22215
C         -7.64319        0.04654        0.92553
C         -7.94358        0.54788       -0.32994
C         -6.96244        0.75399       -1.28622
C         -5.64643        0.44045       -0.97016
F         -9.22027        0.85458       -0.62516
C         -3.44913       -0.20504        2.03423
C          1.20903       -0.37675        0.93574
H          3.03871       -0.88864        1.97035
H          2.24642       -2.23787        1.16557
H          6.33002       -2.77020        0.30976
H          6.14421       -0.38115        1.31591
H          6.61756       -0.31976       -0.40154
H          6.44081        1.68177        0.53808
H          6.20285        4.09774        0.58534
H          4.01844        5.17951        0.06642
H          2.07444        3.73342       -0.51579
H          2.28149        1.31268       -0.58539
H          2.90556       -0.19488       -2.01308
H          3.14792       -1.93849       -2.13525
H          1.05215       -2.38935       -0.95796
H          0.74304       -1.26337       -2.28544
H         -0.97554        0.74614        0.10536
H         -0.94313        0.20716       -1.56837
H         -1.38756       -2.14474       -0.83328
H         -1.41095       -1.63616        0.84567
H         -3.49517       -1.10384       -1.32867
H         -6.08591       -0.65898        2.20604
H         -8.43785       -0.09708        1.65092
H         -7.23321        1.16822       -2.25238
H         -4.86684        0.62874       -1.70363
H         -3.85695       -0.97021        2.70717
H         -2.36157       -0.22532        2.13997
H         -3.80536        0.76546        2.39658
H          0.47875       -0.84154        1.62081
H          1.35616        0.65249        1.28927
