36
omegapdb_1qxw_29.log	Energy: -410430.6195193
C         -3.11510       -2.71429        0.06666
C         -3.79365       -1.67628       -0.79342
C         -2.97721       -1.26814        0.40853
N         -1.69603       -0.62334        0.28646
C         -1.79691        0.74652       -0.19549
C         -0.59233        1.65304        0.10225
C          0.76873        1.17362       -0.46365
N          1.61218        2.37292       -0.58057
C          1.42674        0.05719        0.35503
C          2.63294       -0.57002       -0.34271
C          3.30312       -1.66060        0.49196
C          4.50009       -2.29521       -0.21107
O         -0.93819        2.87134       -0.49062
O         -0.37997        1.82311        1.49000
H         -3.72598       -3.34331        0.70740
H         -2.24546       -3.22116       -0.34650
H         -3.36769       -1.48661       -1.77611
H         -4.87603       -1.59151       -0.74952
H         -3.53519       -0.91746        1.27566
H         -1.11478       -1.16796       -0.34384
H         -2.65419        1.21538        0.30406
H         -2.00255        0.81245       -1.27615
H          0.57877        0.82549       -1.48929
H          2.37099        2.22556       -1.23682
H          2.02454        2.57881        0.32623
H          1.72766        0.48214        1.32146
H          0.69114       -0.71556        0.60112
H          3.37865        0.20425       -0.57767
H          2.32105       -0.99576       -1.30911
H          3.62144       -1.23318        1.45247
H          2.56257       -2.43476        0.73452
H          5.26638       -1.54452       -0.43854
H          4.96497       -3.06993        0.40773
H          4.20030       -2.75910       -1.15834
H         -0.07525        3.29555       -0.67722
H         -1.11769        2.36352        1.80361
