41
omegacsd_CEJTIU_06.log	Energy: -611031.1003076
C         -6.04110       -0.40509        0.20028
N         -5.00057        0.60142        0.22393
C         -5.35297        1.92222       -0.25100
C         -3.67888        0.18304        0.07842
C         -3.31198       -1.16454        0.23390
C         -1.99332       -1.58595        0.12547
C         -0.98441       -0.66718       -0.15854
C         -1.33251        0.67111       -0.33367
C         -2.64960        1.09186       -0.22123
N          0.38857       -1.00990       -0.25599
C          0.90626       -2.26109       -0.40569
O          0.26815       -3.28710       -0.53493
N          2.32095       -2.30798       -0.45726
C          3.32595       -1.65558        0.24075
O          4.48387       -1.97178        0.04386
C          2.96954       -0.56596        1.23852
C          2.96897        0.81864        0.61200
C          3.99227        1.20797       -0.25720
C          3.99714        2.48336       -0.81044
C          2.98326        3.38789       -0.50310
C          1.96300        3.00969        0.36291
C          1.95608        1.73078        0.91640
H         -6.04895       -0.99447       -0.73098
H         -5.93231       -1.09828        1.04145
H         -7.01194        0.08384        0.30756
H         -5.14857        2.06404       -1.32491
H         -4.80820        2.69372        0.30457
H         -6.41822        2.09084       -0.07824
H         -4.06408       -1.91668        0.44432
H         -1.75162       -2.63477        0.24072
H         -0.56202        1.40366       -0.57046
H         -2.86661        2.14278       -0.37677
H          1.01702       -0.23207       -0.40662
H          2.65398       -3.14756       -0.91619
H          3.75144       -0.61994        2.00223
H          2.00821       -0.76268        1.72091
H          4.78451        0.50167       -0.49457
H          4.79782        2.77284       -1.48610
H          2.98992        4.38387       -0.93796
H          1.16946        3.70933        0.61362
H          1.15509        1.43894        1.59444
