61
omegapdb_1v2k_02.log	Energy: -1425431.5962057
N          9.00406        1.62766        1.83853
C          8.11521        0.78713        2.37087
C          7.11598        0.13063        1.66898
C          6.99395        0.32399        0.27873
C          7.92796        1.21539       -0.28474
C          8.88207        1.81433        0.52268
N          6.04942       -0.34657       -0.48492
C          4.86956       -0.90529        0.16447
C          3.83343        0.19150        0.43303
C          3.42099        0.89286       -0.88352
C          4.66020        1.28381       -1.71119
C          5.68952        0.15243       -1.81018
C          2.48951       -0.01657       -1.68715
O          2.88898       -0.66345       -2.64877
N          1.18640       -0.14043       -1.28692
C          0.36338       -1.08335       -2.04758
C         -1.02860       -1.19459       -1.43581
N         -0.89875       -1.37910        0.00601
C         -0.18509       -0.33168        0.74729
C          0.51662        0.60497       -0.23726
S         -2.08355       -2.20587        0.81705
O         -1.60164       -2.35899        2.17774
O         -2.45222       -3.33539       -0.01714
C         -3.48506       -1.10792        0.86983
C         -4.39503       -1.13921       -0.15393
C         -5.48610       -0.23343       -0.15929
C         -5.61625        0.69868        0.90268
C         -4.66008        0.68814        1.95517
C         -3.61639       -0.19620        1.94762
C         -6.70543        1.60993        0.89573
C         -7.61130        1.57651       -0.12749
C         -7.49704        0.64748       -1.19086
C         -6.45467       -0.23632       -1.19951
Cl        -8.94447        2.68994       -0.14284
H          8.20036        0.62238        3.44484
H          6.45263       -0.52807        2.21702
H          7.93035        1.44897       -1.34269
H          9.59933        2.49968        0.07145
H          5.14230       -1.42780        1.08254
H          4.45296       -1.66091       -0.51211
H          2.95888       -0.23642        0.93984
H          4.27367        0.93227        1.11298
H          2.88605        1.81788       -0.63785
H          5.13298        2.15021       -1.22975
H          4.35206        1.59015       -2.71628
H          6.57988        0.47892       -2.34903
H          5.26144       -0.67922       -2.37432
H          0.29301       -0.76614       -3.09485
H          0.85331       -2.06124       -2.03594
H         -1.52313       -2.07586       -1.84844
H         -1.64550       -0.31412       -1.67615
H          0.53951       -0.80827        1.41440
H         -0.86964        0.26793        1.36411
H         -0.21241        1.29923       -0.67758
H          1.23331        1.20960        0.31762
H         -4.29713       -1.87455       -0.94902
H         -4.77845        1.38842        2.77861
H         -2.90451       -0.23743        2.76671
H         -6.81402        2.32810        1.70363
H         -8.24047        0.65056       -1.98153
H         -6.35683       -0.95703       -2.00780
