25
omegapdb_1m5f_08.log	Energy: -499679.9114866
O          2.75584       -2.36091        0.15860
C          1.68397       -1.72477       -0.32181
O          0.77944       -2.29224       -0.89491
C          1.72842       -0.25681       -0.10169
N          2.83819        0.32765        0.27318
O          2.54488        1.65801        0.33278
C          1.25496        1.86148       -0.00832
C          0.66590        0.67359       -0.30645
C         -0.75450        0.40901       -0.69726
C         -1.62625        0.01415        0.51146
N         -1.09285       -1.15676        1.17239
C         -3.07824       -0.15501        0.07261
O         -3.73868       -1.15356        0.22370
O         -3.57231        0.96183       -0.50195
C          0.77730        3.27015        0.01688
H          2.62859       -3.29955       -0.05818
H         -0.78281       -0.40039       -1.43426
H         -1.18661        1.29759       -1.16789
H         -1.61399        0.85194        1.22309
H         -1.08175       -1.93458        0.51672
H         -1.71288       -1.43064        1.92925
H         -4.49344        0.76050       -0.73685
H          0.80647        3.67332        1.03417
H         -0.25132        3.32621       -0.34831
H          1.40758        3.90342       -0.61497
