35
omegacsd_DIAVER_04.log	Energy: -548603.6321688
N         -4.24847        0.41935       -1.03377
C         -4.39964        0.41656        0.29430
N         -3.52251       -0.02426        1.20632
C         -2.37522       -0.51202        0.73749
C         -2.08584       -0.57142       -0.64682
C         -3.08548       -0.07968       -1.46277
C         -0.80987       -1.17028       -1.17692
C          0.46158       -0.44386       -0.76402
C          1.60114       -1.18225       -0.40306
C          2.78558       -0.55232       -0.04831
C          2.84973        0.86019       -0.04351
C          1.72285        1.58836       -0.39363
C          0.53567        0.93915       -0.74912
O          4.04503        1.38958        0.32204
C          4.14596        2.79532        0.35193
O          3.92820       -1.18824        0.31389
C          3.91246       -2.59769        0.32161
N         -1.49322       -1.00344        1.66334
N         -5.56056        0.95218        0.78181
H         -2.94757       -0.09299       -2.54583
H         -0.87018       -1.19640       -2.27328
H         -0.73356       -2.21844       -0.85441
H          1.54516       -2.26742       -0.41221
H          1.75112        2.67313       -0.39166
H         -0.33860        1.53044       -1.01075
H          3.97040        3.23400       -0.63929
H          3.44004        3.23437        1.06955
H          5.16653        3.01680        0.66798
H          3.17493       -2.98858        1.03540
H          4.91191       -2.90788        0.63040
H          3.69814       -3.00447       -0.67549
H         -0.51196       -0.98496        1.42165
H         -1.70670       -0.74013        2.61488
H         -6.31398        1.04478        0.11913
H         -5.80173        0.70986        1.72944
