57
omegacsd_SPIRIL_03.log	Energy: -797199.3286982
C         -2.54754        0.30423        1.45988
C         -3.20644        0.84552        0.17083
C         -3.27677        2.37424        0.26665
O         -2.33521        3.13568        0.38659
N         -4.58283        2.73110        0.19018
C         -5.50148        1.63436        0.04217
N         -4.62463        0.48148        0.07705
C         -5.16086       -0.79083       -0.08200
C         -4.37320       -1.95875       -0.10282
C         -4.96051       -3.20722       -0.25839
C         -6.33726       -3.34998       -0.39772
C         -7.12275       -2.20453       -0.37760
C         -6.55273       -0.94630       -0.22331
C         -2.41516        0.47548       -1.10495
C         -0.90551        0.62173       -0.92605
N         -0.47319       -0.12868        0.24561
C          0.96239       -0.34738        0.30037
C          1.85675        0.90690        0.40420
C          3.30682        0.52154        0.49772
C          4.19180        0.44567       -0.50572
C          5.58789       -0.01035       -0.24435
C          5.85799       -1.01632        0.69149
C          7.15635       -1.43559        0.95366
C          8.19895       -0.84435        0.25888
C          7.97684        0.14155       -0.68809
C          6.67027        0.54679       -0.93590
F          9.46002       -1.24771        0.50177
C          3.86567        0.82097       -1.93218
C         -1.02760        0.45983        1.45777
H         -2.79264       -0.75425        1.57381
H         -2.98042        0.82519        2.32273
H         -4.86409        3.69832        0.22369
H         -6.23577        1.61183        0.86270
H         -6.05623        1.69931       -0.90832
H         -3.29633       -1.90528        0.00123
H         -4.31851       -4.08494       -0.26993
H         -6.78629       -4.33129       -0.51938
H         -8.20227       -2.28120       -0.48450
H         -7.20935       -0.08224       -0.21273
H         -2.76183        1.10747       -1.93226
H         -2.63744       -0.55828       -1.37955
H         -0.64239        1.69038       -0.85681
H         -0.40126        0.20919       -1.80910
H          1.16974       -1.00493        1.15566
H          1.25319       -0.90753       -0.59887
H          1.67415        1.56439       -0.45233
H          1.57951        1.48095        1.29719
H          3.65163        0.25403        1.49739
H          5.03128       -1.49626        1.20861
H          7.36782       -2.21917        1.67453
H          8.81907        0.57890       -1.21510
H          6.49688        1.32347       -1.67625
H          2.78952        0.90621       -2.09992
H          4.25866        0.07201       -2.62852
H          4.31604        1.78366       -2.20557
H         -0.76565        1.52562        1.56215
H         -0.61452       -0.07219        2.32364
