45
omegacsd_FABSOQ10_01.log	Energy: -924265.1214262
S          0.19790        0.43816       -0.18026
C         -0.99555        1.64512       -0.50748
C         -0.77860        2.76804        0.23228
C          0.35633        2.65110        1.09412
C          0.98769        1.44994        0.99095
C          2.11935        0.92988        1.84249
O          1.62447        0.15669        2.92623
C          3.19311        0.18705        1.05409
C          3.64147        0.65556       -0.17771
C          4.65676        0.00673       -0.87770
C          5.23790       -1.14120       -0.33892
O          6.22682       -1.85934       -0.93571
C          6.70573       -1.40393       -2.18177
C          4.80009       -1.61830        0.89920
C          3.79535       -0.95655        1.58550
C         -2.10519        1.40312       -1.51044
O         -2.71253        2.63037       -1.86970
C         -3.17733        0.49180       -0.95046
C         -3.25514       -0.83821       -1.33382
C         -4.21415       -1.69705       -0.79199
C         -5.11754       -1.20394        0.14541
O         -6.09540       -1.93912        0.73874
C         -6.18803       -3.30333        0.39305
C         -5.05247        0.14117        0.53255
C         -4.09096        0.97381       -0.00624
H         -1.41789        3.64268        0.17395
H          0.68043        3.42668        1.78147
H          2.57701        1.80242        2.32482
H          1.08053       -0.55083        2.55177
H          3.19125        1.54645       -0.61128
H          4.97671        0.40292       -1.83575
H          7.48228       -2.10868       -2.48334
H          7.13994       -0.39866       -2.10270
H          5.91177       -1.39488       -2.93990
H          5.26827       -2.51044        1.30490
H          3.46900       -1.32123        2.55487
H         -1.67366        0.91356       -2.39902
H         -2.01026        3.21500       -2.18535
H         -2.55821       -1.22860       -2.07387
H         -4.24537       -2.73207       -1.11551
H         -6.40048       -3.43465       -0.67606
H         -7.01630       -3.70819        0.97670
H         -5.26710       -3.84499        0.64589
H         -5.77100        0.50220        1.26256
H         -4.04302        2.01698        0.29485
