39
omegacsd_FIBREN_01.log	Energy: -667550.5923876
N         -3.60248        1.54777       -0.41886
C         -2.39652        2.11744       -0.47567
N         -1.20341        1.51982       -0.28841
C         -1.16306        0.21125       -0.01121
C         -2.38076       -0.48938        0.07424
C         -3.51486        0.25509       -0.14334
O         -4.57630       -0.59001       -0.02988
C         -4.00943       -1.80830        0.25014
N         -2.72146       -1.81553        0.32429
C         -4.94805       -2.94573        0.42477
N          0.02626       -0.40336        0.18758
C          1.30857        0.23316       -0.10245
C          1.65759        1.25397        0.98878
C          2.83491        2.10877        0.59889
O          3.25869        2.26083       -0.52324
O          3.37104        2.73905        1.66170
C          2.37857       -0.83347       -0.23867
C          2.53287       -1.81633        0.74283
C          3.52028       -2.78890        0.62224
C          4.37247       -2.78304       -0.47823
C          4.23321       -1.79976       -1.45292
C          3.24128       -0.83112       -1.33396
C         -2.34574        3.58673       -0.78565
H         -4.37790       -3.84197        0.67244
H         -5.51532       -3.11969       -0.49489
H         -5.66297       -2.73494        1.22584
H         -0.00103       -1.41233        0.22822
H          1.22379        0.78183       -1.04707
H          1.85944        0.76330        1.94630
H          0.80263        1.92471        1.13246
H          4.09399        3.28544        1.31099
H          1.87805       -1.82167        1.61365
H          3.62587       -3.54980        1.39138
H          5.14530       -3.54147       -0.57324
H          4.89956       -1.78567       -2.31160
H          3.14342       -0.05213       -2.08541
H         -1.76490        3.75711       -1.69758
H         -3.35480        3.98082       -0.91555
H         -1.84302        4.12455        0.02445
