46
omegacsd_CDBMPI10_00.log	Energy: -649540.0293443
O         -1.71663       -2.30435       -0.29153
C         -1.99646       -1.16522        0.06040
N         -1.15541       -0.43898        0.86306
C          0.06828       -1.11244        1.32095
C          1.16913       -0.06537        1.51848
N          1.14204        0.90721        0.44249
C         -0.06203        1.74255        0.39080
C         -1.21466        0.99599        1.08684
C          0.15131        3.11522        1.02362
C          2.15285        1.19893       -0.43188
O          2.09707        2.18540       -1.15643
C          3.34174        0.27900       -0.51342
C          3.21954       -1.10418       -0.65395
C          4.35304       -1.89386       -0.82284
C          5.61430       -1.30653       -0.84512
C          5.73970        0.07500       -0.71922
C          4.60670        0.86542       -0.56942
C         -0.18544       -1.92264        2.58730
C         -3.30493       -0.55498       -0.36466
C         -4.19626        0.01537        0.54552
C         -5.43638        0.47720        0.11496
C         -5.78796        0.37900       -1.22810
C         -4.90623       -0.20141       -2.13660
C         -3.67584       -0.68102       -1.70336
H          0.36313       -1.79372        0.51650
H          2.14337       -0.55292        1.56483
H          1.03139        0.45428        2.47885
H         -0.30548        1.87175       -0.66904
H         -1.18929        1.19340        2.16826
H         -2.15845        1.39308        0.71463
H          0.46667        3.01539        2.06973
H          0.91857        3.66112        0.47124
H         -0.77816        3.69629        1.00273
H          2.23457       -1.56583       -0.66002
H          4.24785       -2.96864       -0.94492
H          6.49977       -1.92409       -0.97237
H          6.72230        0.53842       -0.75072
H          4.68684        1.94695       -0.50490
H         -0.93567       -2.69334        2.39110
H         -0.54632       -1.27812        3.39797
H          0.73398       -2.41540        2.92411
H         -3.92801        0.08053        1.59814
H         -6.13053        0.90960        0.83091
H         -6.75364        0.74662       -1.56562
H         -5.18268       -0.29086       -3.18385
H         -2.99272       -1.16664       -2.39461
