45
omegacsd_SEYMIS_12.log	Energy: -753203.5672184
O          4.11229       -2.51921       -0.74581
N          4.65676       -1.29809       -0.41522
C          3.65091       -0.48708       -0.20234
C          2.40142       -1.18007       -0.35986
C          1.02016       -0.62277       -0.30809
O          0.73663        0.47072       -0.76462
N          0.10689       -1.45903        0.28010
C         -1.26667       -1.19066        0.43012
C         -2.15057       -2.03967        1.07143
N         -3.39386       -1.48935        1.02995
C         -4.57862       -2.10126        1.61064
C         -3.31536       -0.29008        0.36348
C         -2.00312       -0.07678       -0.02129
C         -4.49150        0.55556        0.14548
O         -5.61969        0.28895        0.51414
O         -4.16625        1.67768       -0.51499
C         -5.24623        2.58550       -0.78775
C         -6.01744        2.16749       -2.02538
C          2.77713       -2.44295       -0.71102
C          2.04059       -3.68204       -1.08896
C          3.93140        0.91961        0.15923
C          5.12547        1.50380       -0.27418
C          5.43251        2.81287        0.07376
C          4.55101        3.55201        0.85793
C          3.36249        2.97447        1.29340
C          3.05177        1.66446        0.94651
H          0.46623       -2.26677        0.76604
H         -1.98292       -2.99430        1.55381
H         -5.32774       -2.29631        0.84154
H         -4.27621       -3.04124        2.07755
H         -5.02234       -1.44354        2.35947
H         -1.62195        0.77710       -0.55795
H         -4.75724        3.55228       -0.92761
H         -5.89922        2.63219        0.08773
H         -6.78368        2.91460       -2.25778
H         -6.51129        1.20620       -1.86016
H         -5.34661        2.08104       -2.88558
H          2.08858       -4.42748       -0.28732
H          0.99323       -3.45565       -1.30000
H          2.49331       -4.12467       -1.98044
H          5.80588        0.92016       -0.88737
H          6.36100        3.25893       -0.27299
H          4.78815        4.57851        1.12592
H          2.67000        3.54626        1.90539
H          2.11831        1.22837        1.28740
