36
omegapdb_1qxw_19.log	Energy: -410432.5161817
C          2.85907       -1.54938        0.92160
C          3.84761       -1.76915       -0.19040
C          3.31378       -0.39528        0.08240
N          2.41755        0.17865       -0.89266
C          1.77572        1.42355       -0.46564
C          0.41044        1.24894        0.21343
C         -0.61945        0.48622       -0.66873
N         -0.29703       -0.94162       -0.57518
C         -2.05275        0.75128       -0.19922
C         -3.12851       -0.04067       -0.96502
C         -3.59688       -1.32462       -0.26441
C         -4.47533       -1.04758        0.95466
O          0.52304        0.59368        1.45045
O         -0.01356        2.56964        0.45884
H          1.84631       -1.90840        0.76567
H          3.20867       -1.59955        1.94854
H          3.48610       -2.26708       -1.08636
H          4.88362       -1.98016        0.05823
H          3.99743        0.30805        0.56739
H          2.94845        0.36095       -1.73786
H          2.40089        1.99241        0.23928
H          1.61643        2.05398       -1.34769
H         -0.52042        0.87374       -1.69764
H          0.61701       -1.07937       -1.00594
H         -0.97504       -1.49394       -1.09160
H         -2.23260        1.82502       -0.30731
H         -2.11541        0.52355        0.87414
H         -2.75641       -0.27914       -1.97245
H         -4.00757        0.59762       -1.12356
H         -2.72890       -1.92002        0.04747
H         -4.16108       -1.93951       -0.97751
H         -5.38108       -0.50036        0.66696
H         -4.78599       -1.97866        1.44023
H         -3.94809       -0.44541        1.70347
H          0.24875       -0.32630        1.27199
H         -0.56278        2.51690        1.25297
