34
omegapdb_2f7p_18.log	Energy: -719057.6937173
C         -0.99460        0.18644       -0.87621
N          0.45288        0.16881       -0.86916
C          1.14191       -0.66988        0.10928
C          2.63113       -0.39486        0.09850
C          3.12161        0.90738       -0.01693
C          4.49026        1.15187        0.00061
C          5.38948        0.09656        0.13437
C          4.90998       -1.20422        0.24746
C          3.53897       -1.44569        0.22534
C         -1.82179       -1.11474       -0.91321
O         -1.50253       -2.08697        0.07370
C         -3.23774       -0.58337       -0.64136
O         -4.13554       -1.60442       -0.26661
C         -3.01001        0.41871        0.52096
O         -2.98641       -0.31848        1.73856
C         -1.59593        0.98750        0.30272
S         -1.61004        2.77985       -0.00214
H         -1.27932        0.72047       -1.79327
H          0.80826       -0.03687       -1.79671
H          0.96468       -1.74389       -0.03931
H          0.73995       -0.43101        1.10333
H          2.41517        1.72576       -0.13059
H          4.85831        2.17100       -0.09088
H          6.45954        0.28789        0.14676
H          5.60435       -2.03505        0.34591
H          3.16749       -2.46593        0.30649
H         -1.73280       -1.62873       -1.87555
H         -1.66159       -1.67022        0.94098
H         -3.63529       -0.06235       -1.52005
H         -3.57414       -2.37523       -0.07610
H         -3.78581        1.19426        0.56479
H         -3.77981       -0.87906        1.69860
H         -1.03325        0.80456        1.22257
H         -0.32907        2.82995       -0.40298
