57
omegacsd_SPIRIL_01.log	Energy: -797199.4207037
C         -2.49484       -0.67847        1.19509
C         -3.32500       -1.06355       -0.04963
C         -3.61710       -2.56734        0.01356
O         -2.79671       -3.46531       -0.01286
N         -4.96129       -2.72062        0.11026
C         -5.71031       -1.49275        0.12144
N         -4.67505       -0.48994       -0.02780
C         -5.01958        0.85658       -0.01511
C         -4.06915        1.89335       -0.09688
C         -4.46804        3.22337       -0.08826
C         -5.81015        3.57831        0.00055
C         -6.75520        2.56363        0.08146
C         -6.37491        1.22673        0.07469
C         -2.58013       -0.76119       -1.36761
C         -1.09777       -1.12159       -1.31217
N         -0.45716       -0.48847       -0.16177
C          0.99001       -0.65101       -0.21726
C          1.74124        0.32009        0.70095
C          3.22757        0.12060        0.60213
C          4.13653        0.93979        0.05645
C          5.57519        0.54288        0.02483
C          5.95568       -0.78840       -0.18427
C          7.29203       -1.16836       -0.19883
C          8.26191       -0.19693       -0.01179
C          7.93184        1.13413        0.18079
C          6.58890        1.49380        0.19176
F          9.55940       -0.55462       -0.02972
C          3.80740        2.29080       -0.53248
C         -1.02023       -1.04891        1.06419
H         -2.92674       -1.16846        2.07666
H         -2.57368        0.39821        1.36302
H         -5.38098       -3.63488        0.17126
H         -6.43392       -1.45685       -0.70801
H         -6.26782       -1.36911        1.06445
H         -3.01059        1.67486       -0.16712
H         -3.70434        3.99481       -0.15243
H         -6.11076        4.62191        0.00671
H         -7.81292        2.80627        0.15258
H         -7.15089        0.47077        0.13787
H         -2.67464        0.30228       -1.59917
H         -3.06792       -1.30695       -2.18449
H         -0.97491       -2.21833       -1.28757
H         -0.61527       -0.75257       -2.22473
H          1.28984       -1.69364        0.01049
H          1.31154       -0.45377       -1.24718
H          1.44025        1.33997        0.44426
H          1.43997        0.15953        1.74418
H          3.58773       -0.81629        1.03022
H          5.18970       -1.53907       -0.36059
H          7.58929       -2.19877       -0.36691
H          8.71933        1.86831        0.31933
H          6.33071        2.53807        0.34717
H          4.14081        3.10361        0.12504
H          4.31425        2.42628       -1.49425
H          2.73543        2.42198       -0.69300
H         -0.89835       -2.14642        1.08866
H         -0.48701       -0.63779        1.92744
