39
omegacsd_GALSEM_07.log	Energy: -1046257.4833490
S          2.42260       -0.60079       -1.18282
O          1.34020       -1.26725       -1.89894
O          3.73878       -0.45474       -1.76766
N          2.53585       -1.48692        0.23415
C          3.54000       -1.53939        1.21646
O          3.45641       -2.40129        2.06165
C          4.67211       -0.54144        1.16761
C          5.91862       -1.17418        0.53813
C          1.86574        0.99328       -0.67773
C          0.55929        1.19878       -0.17675
N         -0.35295        0.17441       -0.13170
C         -1.63653        0.23941        0.45341
C         -2.73506       -0.22538       -0.26742
C         -3.99543       -0.22645        0.31918
C         -4.17931        0.24521        1.61448
C         -3.07993        0.70667        2.33045
C         -1.81193        0.69362        1.76285
C         -5.18478       -0.67549       -0.48698
F         -4.84396       -1.59292       -1.40882
F         -6.13730       -1.21406        0.29370
F         -5.74799        0.35522       -1.14369
C          0.27417        2.50903        0.24082
C          1.24409        3.48814        0.11932
N          2.47030        3.30181       -0.38494
C          2.75194        2.06525       -0.77675
H          1.85289       -2.23485        0.29791
H          4.87371       -0.27537        2.20927
H          4.39302        0.36935        0.63207
H          6.19040       -2.08902        1.07304
H          5.74310       -1.41424       -0.51412
H          6.76024       -0.47799        0.59498
H         -0.20111       -0.56720       -0.80735
H         -2.60517       -0.58798       -1.28358
H         -5.16850        0.23736        2.06099
H         -3.20726        1.06023        3.34965
H         -0.94886        1.01657        2.33870
H         -0.70751        2.76328        0.62393
H          1.01451        4.50425        0.43582
H          3.73863        1.89270       -1.20224
