36
omegapdb_1qxw_33.log	Energy: -410427.6244085
C         -4.62695       -0.31738       -0.18100
C         -3.76766       -1.37285        0.47501
C         -3.40071       -0.84717       -0.87413
N         -2.18054       -0.09261       -1.09243
C         -1.77042        0.87555       -0.07495
C         -0.42779        0.47368        0.57456
C          0.78588        0.76952       -0.34817
N          0.94681        2.23090       -0.40256
C          2.06223        0.12939        0.19681
C          3.23730        0.15551       -0.78251
C          4.52606       -0.44186       -0.20904
C          4.42177       -1.93034        0.11951
O         -0.49267       -0.89009        0.89152
O         -0.27055        1.17162        1.77270
H         -5.60256       -0.60315       -0.56474
H         -4.59052        0.68542        0.23706
H         -3.14879       -1.07612        1.31839
H         -4.15144       -2.38698        0.54276
H         -3.57980       -1.52167       -1.70874
H         -2.24124        0.35359       -1.99964
H         -1.69773        1.88484       -0.50003
H         -2.48913        0.94145        0.74822
H          0.56562        0.33062       -1.33676
H          0.34543        2.64538       -1.10773
H          1.89831        2.47646       -0.65568
H          1.82069       -0.90180        0.46826
H          2.33580        0.63968        1.13082
H          2.95983       -0.39270       -1.69544
H          3.45099        1.18630       -1.10252
H          4.80887        0.11467        0.69509
H          5.33830       -0.28921       -0.93142
H          5.38434       -2.32696        0.45948
H          4.11690       -2.50497       -0.76385
H          3.68880       -2.12189        0.91012
H         -0.91970       -1.29659        0.11756
H          0.21073        1.97902        1.51344
