45
omegacsd_SEYMIS_06.log	Energy: -753207.7506797
O          4.21394        2.77378       -0.24342
N          4.60398        1.45984       -0.10502
C          3.50175        0.76680        0.02804
C          2.34591        1.61935       -0.01715
C          0.88298        1.34139        0.01230
O          0.06870        2.21468        0.28131
N          0.52911        0.06641       -0.31548
C         -0.77933       -0.44647       -0.31746
C         -1.07267       -1.77901       -0.54437
N         -2.42114       -1.94678       -0.48329
C         -3.09605       -3.22102       -0.67051
C         -2.99808       -0.72854       -0.21348
C         -2.00027        0.22494       -0.10638
C         -4.44720       -0.56761       -0.07812
O         -5.26593       -1.46065       -0.18283
O         -4.77454        0.70775        0.18150
C         -6.17793        0.96408        0.33621
C         -6.33433        2.44018        0.63027
C          2.88197        2.86588       -0.18237
C          2.29836        4.22577       -0.31664
C          3.61198       -0.70013        0.21031
C          4.49083       -1.43147       -0.59337
C          4.62574       -2.80363       -0.41469
C          3.88529       -3.45756        0.56641
C          3.01252       -2.73387        1.37453
C          2.87715       -1.36043        1.20066
H          1.26521       -0.58558       -0.54391
H         -0.41410       -2.61517       -0.74320
H         -3.81607       -3.15799       -1.48756
H         -3.63296       -3.50995        0.23487
H         -2.33733       -3.97127       -0.90378
H         -2.13529        1.27423        0.10085
H         -6.56564        0.33968        1.14763
H         -6.69606        0.67113       -0.58271
H         -5.93704        3.04340       -0.19129
H         -7.39357        2.68393        0.75998
H         -5.80131        2.71093        1.54642
H          2.60480        4.84899        0.52974
H          1.21114        4.14989       -0.32441
H          2.65613        4.70255       -1.23420
H          5.06767       -0.91170       -1.35315
H          5.31072       -3.36454       -1.04490
H          3.99217       -4.53028        0.70477
H          2.44201       -3.23652        2.15100
H          2.20674       -0.79437        1.84292
