40
omegapdb_2byh_00.log	Energy: -1016194.5370490
O          7.74244       -0.48654        1.07083
C          6.88235       -1.10124        0.46994
C          7.17866       -2.44946       -0.15146
C          5.50285       -0.53523        0.32944
C          4.47451       -1.19184       -0.34581
C          3.20366       -0.63805       -0.45348
C          2.95346        0.60716        0.12789
C          3.98048        1.27582        0.80745
C          5.23719        0.70969        0.90658
N          1.70442        1.25748        0.07135
C          0.53770        0.83215       -0.49634
O          0.41517       -0.27333       -1.02600
C         -0.56493        1.80452       -0.42981
C         -0.48011        3.21901       -0.38905
N         -1.67038        3.78108       -0.31149
N         -2.51774        2.74298       -0.29119
C         -1.92954        1.52713       -0.36797
C         -2.77202        0.31775       -0.29562
C         -3.73124        0.25024        0.71995
C         -4.65756       -0.77465        0.76627
Cl        -5.83991       -0.84303        2.04749
C         -4.66023       -1.77134       -0.21970
O         -5.54258       -2.78983       -0.23262
C         -3.70145       -1.72148       -1.22365
C         -2.75281       -0.70245       -1.27282
O         -1.88622       -0.71584       -2.29948
H          6.52582       -3.22395        0.26614
H          8.22015       -2.70455        0.04920
H          7.01190       -2.42440       -1.23413
H          4.65139       -2.16161       -0.80375
H          2.41249       -1.16101       -0.97255
H          3.78636        2.24685        1.26004
H          6.04056        1.21812        1.43143
H          1.65414        2.13277        0.57269
H          0.40338        3.84437       -0.44905
H         -3.51229        2.91714       -0.27408
H         -3.75058        1.01059        1.49658
H         -6.13682       -2.70675        0.52829
H         -3.68273       -2.49635       -1.98203
H         -0.99553       -0.45241       -1.96954
