25
omegapdb_1m5f_23.log	Energy: -499676.9341468
O         -3.28782       -1.23917       -0.43088
C         -2.22090       -1.01782        0.34884
O         -1.91231       -1.76230        1.24209
C         -1.48253        0.24686        0.03653
N         -2.05152        1.11238       -0.76183
O         -1.20517        2.17725       -0.82337
C         -0.12286        1.94026       -0.04966
C         -0.23224        0.71198        0.53075
C          0.71386       -0.02704        1.42974
C          1.96815       -0.56533        0.73030
N          2.83221        0.52665        0.28636
C          1.61813       -1.44349       -0.46108
O          0.53437       -1.90106       -0.72077
O          2.71168       -1.71102       -1.20697
C          0.88904        3.02979       -0.00060
H         -3.37538       -0.50176       -1.06023
H          0.17128       -0.86093        1.88175
H          1.04822        0.62700        2.24617
H          2.47343       -1.24539        1.44061
H          3.59615        0.15360       -0.26968
H          3.24840        0.97217        1.09949
H          2.41227       -2.28633       -1.93044
H          1.38160        3.04008        0.97506
H          0.40587        3.99596       -0.16845
H          1.66325        2.87156       -0.75567
