39
omegacsd_GALSEM_10.log	Energy: -1046257.3831483
S          2.55049        0.28123        1.43640
O          3.84108        0.78026        1.84849
O          1.49227        0.05239        2.41986
N          2.71981       -1.25466        0.75267
C          3.66396       -1.56785       -0.22485
O          4.28166       -0.70723       -0.80862
C          3.81475       -3.05590       -0.47923
C          4.71301       -3.33983       -1.67512
C          1.93624        1.27803        0.12641
C          0.56546        1.32477       -0.22461
N         -0.39471        0.63138        0.45731
C         -1.79609        0.80113        0.29350
C         -2.59013       -0.33174        0.13669
C         -3.97105       -0.20092        0.03773
C         -4.56895        1.05440        0.07755
C         -3.77307        2.18471        0.22994
C         -2.39364        2.06185        0.34937
C         -4.81928       -1.42354       -0.18477
F         -4.24411       -2.52895        0.32191
F         -6.03071       -1.29638        0.38430
F         -5.02200       -1.64963       -1.49607
C          0.26619        2.11271       -1.35275
C          1.27878        2.79269       -1.99953
N          2.57141        2.77733       -1.64565
C          2.87310        2.01531       -0.60401
H          2.27460       -1.98299        1.29837
H          4.22464       -3.50938        0.43335
H          2.81770       -3.49325       -0.61979
H          4.82748       -4.41805       -1.81855
H          5.70179       -2.89858       -1.52812
H          4.29308       -2.90963       -2.58835
H         -0.09179        0.17933        1.31375
H         -2.12421       -1.31147        0.09500
H         -5.64807        1.14461       -0.00032
H         -4.23222        3.16799        0.27668
H         -1.77258        2.94143        0.49668
H         -0.75245        2.18209       -1.71746
H          1.03601        3.40039       -2.87011
H          3.91824        1.96584       -0.31088
