40
omegapdb_2byh_09.log	Energy: -1016188.2550956
O         -7.63979       -0.32342        0.76979
C         -6.72022       -1.02870        0.39985
C         -6.94141       -2.49530        0.09451
C         -5.34557       -0.46143        0.23565
C         -4.25138       -1.21927       -0.18163
C         -2.98668       -0.65903       -0.32055
C         -2.80727        0.69792       -0.03718
C         -3.90180        1.46790        0.38179
C         -5.15134        0.89408        0.51637
N         -1.57229        1.35947       -0.15298
C         -0.34974        0.84133       -0.51496
O         -0.16129       -0.34032       -0.75842
C          0.71995        1.86470       -0.59423
C          0.58713        3.23602       -0.92722
N          1.74484        3.86842       -0.90487
N          2.62491        2.92207       -0.54669
C          2.08095        1.68987       -0.36113
C          2.92592        0.54822        0.03247
C          2.79340       -0.69715       -0.58696
C          3.64379       -1.73742       -0.26417
Cl         3.48051       -3.28702       -1.04806
C          4.65574       -1.57090        0.69199
O          5.51139       -2.55162        1.03610
C          4.78174       -0.34150        1.32988
C          3.92648        0.70334        1.01149
O          4.12468        1.87549        1.68055
H         -6.30870       -3.12688        0.72791
H         -7.99046       -2.73408        0.27499
H         -6.69179       -2.71726       -0.94909
H         -4.37184       -2.27620       -0.40560
H         -2.14418       -1.25802       -0.63752
H         -3.76402        2.52552        0.60105
H         -6.00519        1.48152        0.84090
H         -1.57787        2.32865        0.12951
H         -0.30878        3.77507       -1.21322
H          3.60957        3.14836       -0.52579
H          2.00435       -0.84725       -1.31475
H          5.29900       -3.34955        0.52800
H          5.54264       -0.20606        2.09045
H          3.31823        2.40863        1.64196
