34
omegapdb_2f7p_19.log	Energy: -719056.5481297
C         -0.96343        0.09199       -0.85517
N          0.48290        0.10705       -0.83389
C          1.16215       -0.03488        0.44897
C          2.66341       -0.07970        0.25948
C          3.22495       -0.77734       -0.81214
C          4.60532       -0.83979       -0.96863
C          5.44481       -0.20730       -0.05491
C          4.89368        0.49060        1.01475
C          3.51127        0.55611        1.16597
C         -1.62380       -1.28072       -0.66639
O         -1.27730       -1.97945        0.52428
C         -3.11014       -0.90388       -0.59527
O         -3.90947       -1.93986       -0.06846
C         -3.10591        0.33090        0.34552
O         -3.12907       -0.13806        1.68823
C         -1.74251        1.01788        0.12190
S         -1.95319        2.72171       -0.48124
H         -1.24761        0.39750       -1.87139
H          0.83268        0.92845       -1.31736
H          0.81898       -0.97169        0.89962
H          0.92327        0.77187        1.16558
H          2.56356       -1.26338       -1.52446
H          5.02884       -1.38522       -1.80858
H          6.52371       -0.25630       -0.17885
H          5.54010        0.99266        1.73043
H          3.08478        1.11023        2.00069
H         -1.37842       -1.95610       -1.49008
H         -1.58687       -1.43418        1.27143
H         -3.49016       -0.62747       -1.58567
H         -3.28026       -2.58459        0.29741
H         -3.95918        0.99853        0.16479
H         -3.83855       -0.80343        1.69969
H         -1.25210        1.06152        1.09832
H         -0.64392        3.00060       -0.59141
