25
omegapdb_1m5f_20.log	Energy: -499673.1723605
O         -1.56126       -2.93680       -0.03263
C         -0.79506       -1.94528       -0.49107
O          0.23662       -2.11495       -1.09838
C         -1.33804       -0.59398       -0.18500
N         -2.52428       -0.43916        0.34569
O         -2.69303        0.90972        0.47089
C         -1.60209        1.55723        0.01513
C         -0.68170        0.65456       -0.42576
C          0.67012        0.92188       -1.02079
C          1.82750        1.03065       -0.00397
N          3.01577        1.47183       -0.70739
C          2.05524       -0.29354        0.74515
O          3.00407       -1.00259        0.54670
O          1.12971       -0.62842        1.67286
C         -1.63598        3.04343        0.07085
H         -1.10999       -3.76209       -0.27801
H          0.65625        1.87160       -1.56498
H          0.91154        0.13385       -1.73972
H          1.56163        1.79925        0.73675
H          3.35679        0.68578       -1.25857
H          3.75489        1.64777       -0.03162
H          0.43851        0.04892        1.71258
H         -2.49643        3.42874       -0.48449
H         -1.71854        3.39515        1.10407
H         -0.72396        3.45688       -0.36688
