36
omegapdb_1qxw_15.log	Energy: -410435.0541971
C         -4.90570       -1.09766        0.29834
C         -4.50244       -0.76196       -1.11607
C         -3.88856       -0.03274        0.05110
N         -2.52332       -0.24717        0.45133
C         -1.53755        0.32262       -0.46080
C         -0.18214        0.27516        0.24373
C          0.91034        1.06760       -0.49506
N          0.46566        2.45995       -0.54803
C          2.30656        0.86850        0.13366
C          3.10355       -0.31615       -0.41736
C          4.47014       -0.47368        0.24752
C          5.27965       -1.63065       -0.33255
O          0.14333       -1.10647        0.34091
O         -0.30315        0.81922        1.53005
H         -5.89166       -0.80376        0.64617
H         -4.55557       -2.04167        0.71025
H         -5.21195       -0.23565       -1.74849
H         -3.87840       -1.48136       -1.64131
H         -4.20894        0.99676        0.20222
H         -2.33069       -1.24003        0.55603
H         -1.78806        1.36792       -0.65865
H         -1.47316       -0.20590       -1.42435
H          0.93480        0.68750       -1.52626
H          0.38441        2.80044        0.40735
H          1.17036        3.02723       -1.01023
H          2.88682        1.78432       -0.04768
H          2.20703        0.79480        1.22649
H          3.24336       -0.17738       -1.49984
H          2.52753       -1.24319       -0.30907
H          4.33321       -0.62387        1.32759
H          5.03508        0.46290        0.14046
H          6.25313       -1.72839        0.15965
H          5.45937       -1.48508       -1.40430
H          4.74713       -2.58163       -0.21344
H          0.73098       -1.18144        1.10528
H         -1.21576        0.58983        1.79625
