40
omegapdb_2byh_17.log	Energy: -1016180.7187696
O          7.27849       -0.38610       -0.61967
C          6.21701       -0.22161       -1.18967
C          6.17199        0.16133       -2.65407
C          4.92382       -0.39308       -0.45460
C          3.67657       -0.23389       -1.06218
C          2.50258       -0.41301       -0.34347
C          2.56109       -0.72835        1.01673
C          3.80790       -0.89077        1.63096
C          4.97284       -0.73196        0.89979
N          1.40564       -0.94837        1.79351
C          0.11432       -0.46505        1.66293
O         -0.80267       -1.08613        2.17839
C         -0.07023        0.83942        0.99448
C          0.83991        1.92405        1.01419
N          0.32812        3.01051        0.47016
N         -0.90077        2.63734        0.08737
C         -1.21829        1.35613        0.38337
C         -2.51953        0.77098        0.00543
C         -2.68235       -0.61663       -0.08144
C         -3.88186       -1.19863       -0.44641
Cl        -4.02366       -2.92211       -0.54186
C         -4.99011       -0.39881       -0.74204
O         -6.14667       -1.00083       -1.09143
C         -4.85095        0.98373       -0.67043
C         -3.63732        1.56046       -0.30750
O         -3.51512        2.92142       -0.25882
H          7.19447        0.24611       -3.02480
H          5.65389        1.11698       -2.79136
H          5.63426       -0.59378       -3.23838
H          3.60720        0.01583       -2.11771
H          1.54111       -0.30939       -0.83529
H          3.85150       -1.13288        2.69032
H          5.94627       -0.85535        1.36529
H          1.44072       -1.73070        2.43486
H          1.84051        1.94507        1.42698
H         -1.52469        3.31256       -0.32738
H         -1.85640       -1.26986        0.16869
H         -6.82273       -0.33036       -1.25216
H         -5.70077        1.62303       -0.90829
H         -4.37076        3.32973       -0.44062
