39
omegacsd_FIBREN_15.log	Energy: -667543.1940572
N          3.12874       -1.45312        1.14245
C          1.85956       -1.59976        1.53091
N          0.81507       -0.81140        1.21160
C          1.01607        0.25165        0.42734
C          2.31657        0.50073       -0.04285
C          3.27867       -0.39225        0.36511
O          4.45594        0.00857       -0.18869
C          4.12714        1.13117       -0.90676
N          2.88354        1.47244       -0.86200
C          5.23787        1.79824       -1.63220
N         -0.02105        1.07216        0.12245
C         -1.40044        0.72897        0.43377
C         -2.22442        2.02735        0.44731
C         -3.61520        1.90133        1.05913
O         -3.99559        2.60579        1.95566
O         -4.43129        0.96850        0.53177
C         -1.94213       -0.34019       -0.51027
C         -2.21186       -1.62394       -0.03265
C         -2.69678       -2.61005       -0.88697
C         -2.91467       -2.32499       -2.23126
C         -2.64326       -1.04990       -2.72037
C         -2.15929       -0.06503       -1.86466
C          1.54217       -2.77272        2.41425
H          4.84590        2.67176       -2.15453
H          5.69050        1.11345       -2.35591
H          6.01846        2.11269       -0.93279
H          0.16102        1.77573       -0.57984
H         -1.38937        0.31026        1.44469
H         -1.69905        2.77797        1.04101
H         -2.32932        2.42085       -0.57379
H         -3.97898        0.46450       -0.16392
H         -2.02317       -1.84844        1.01431
H         -2.90267       -3.60442       -0.49988
H         -3.29433       -3.09426       -2.89835
H         -2.80759       -0.82146       -3.77007
H         -1.94171        0.92513       -2.26322
H          0.81445       -3.42515        1.92060
H          2.44952       -3.33796        2.63218
H          1.08963       -2.42771        3.34909
