66
omegapdb_1z1r_20.log	Energy: -1302679.4821946
C         -0.07063       -1.88047       -1.39478
C          0.47395       -3.18974       -0.77528
C          1.86750       -2.97162       -0.22862
C          2.10338       -3.00711        1.14552
C          3.29808       -2.53499        1.68358
C          4.27264       -2.00854        0.84186
C          4.09492       -2.06117       -0.54094
C          2.90213       -2.54193       -1.06543
O          5.37293       -1.39923        1.39735
C          5.41362        0.01088        1.15284
C          4.26819        0.72398        1.87608
C          4.00152        2.16577        1.40896
C          3.85066        2.29646       -0.10036
O          4.80756        2.57877       -0.79978
N          2.60812        2.11280       -0.67479
C          1.49317        1.37434       -0.11850
C          1.15673        0.23251       -1.09655
O          1.56514        0.26600       -2.24580
N          0.31654       -0.71347       -0.61056
C          0.23227        2.24993        0.07721
C         -0.39616        2.62170       -1.25709
O         -1.29740        1.96012       -1.75872
N          0.11653        3.72302       -1.85735
C         -1.58698       -1.86281       -1.64327
O         -1.94846       -0.76906       -2.45572
C         -2.40846       -1.84963       -0.34646
N         -3.80117       -1.61653       -0.70514
S         -4.81124       -1.04993        0.47528
O         -6.07001       -0.75041       -0.18014
O         -4.71085       -1.96673        1.59815
C         -4.09496        0.49804        1.01245
C         -4.10582        1.58872        0.14662
C         -3.53104        2.78605        0.55602
C         -2.95781        2.88783        1.82238
C         -2.95096        1.79089        2.68098
C         -3.51873        0.58551        2.27599
H          0.39841       -1.72650       -2.37016
H         -0.18166       -3.53507        0.03436
H          0.45169       -3.96689       -1.54865
H          1.32290       -3.36444        1.81583
H          3.46572       -2.51569        2.75699
H          4.87508       -1.68819       -1.19921
H          2.75156       -2.51564       -2.14273
H          5.38153        0.20828        0.07445
H          6.38695        0.34536        1.52107
H          3.36402        0.11983        1.74170
H          4.46872        0.73089        2.95347
H          3.11790        2.55619        1.92872
H          4.84835        2.80709        1.66928
H          2.67923        1.98534       -1.68263
H          1.76580        0.95605        0.85437
H          0.18981       -0.75227        0.39134
H         -0.52628        1.70155        0.64391
H          0.51226        3.14271        0.64682
H          0.98578        4.12087       -1.53327
H         -0.15778        3.89813       -2.81367
H         -1.85441       -2.75796       -2.21823
H         -1.63266        0.06484       -2.05385
H         -2.33000       -2.79825        0.19298
H         -2.03260       -1.04660        0.30924
H         -3.87280       -1.06300       -1.55868
H         -4.56815        1.50567       -0.83338
H         -3.53243        3.63956       -0.11595
H         -2.51968        3.82975        2.14385
H         -2.51224        1.87563        3.67178
H         -3.53961       -0.28237        2.92875
