40
omegapdb_2byh_06.log	Energy: -1016189.7573282
O         -6.86999       -2.22647       -0.22367
C         -6.68678       -1.12526        0.25890
C         -7.81461       -0.38501        0.94908
C         -5.34328       -0.47224        0.18436
C         -4.30333       -1.15575       -0.44895
C         -3.03098       -0.61487       -0.55430
C         -2.78021        0.65218       -0.01296
C         -3.81642        1.34693        0.62326
C         -5.08110        0.79042        0.72116
N         -1.53256        1.29431       -0.07904
C         -0.33481        0.80610       -0.55570
O         -0.20268       -0.33743       -0.96710
C          0.74236        1.82467       -0.53539
C          0.54494        3.21018       -0.75120
N          1.66987        3.89405       -0.66457
N          2.59272        2.96546       -0.39452
C          2.11829        1.70048       -0.30662
C          3.01195        0.56511       -0.00551
C          2.67865       -0.73359       -0.40126
C          3.50556       -1.80668       -0.12001
Cl         3.06529       -3.41735       -0.62250
C          4.71143       -1.62758        0.56307
O          5.55581       -2.63254        0.86242
C          5.06653       -0.33887        0.95044
C          4.23724        0.73724        0.66899
O          4.60401        1.99990        1.04252
H         -7.56447       -0.18108        1.99630
H         -8.00707        0.57695        0.46096
H         -8.71431       -1.00047        0.90498
H         -4.51551       -2.13692       -0.86391
H         -2.23239       -1.15854       -1.03977
H         -3.62572        2.33188        1.04587
H         -5.86433        1.35332        1.22232
H         -1.49282        2.20438        0.35593
H         -0.37671        3.72169       -1.00378
H          3.54380        3.24345       -0.20334
H          1.74432       -0.89904       -0.92872
H          5.18368       -3.46457        0.53099
H          6.00987       -0.19970        1.47258
H          5.44163        1.95852        1.52161
