36
omegapdb_1qxw_25.log	Energy: -410432.2757578
C          4.55060       -1.24323        0.44662
C          4.33989       -0.69046       -0.93580
C          3.76334        0.01602        0.25548
N          2.33987       -0.05538        0.43661
C          1.63040        0.99968       -0.26858
C          0.11695        0.95888       -0.03477
C         -0.56220       -0.31393       -0.61162
N         -0.28190       -1.52263        0.15664
C         -2.07578       -0.16752       -0.83536
C         -2.92293        0.16978        0.39576
C         -4.43114        0.05053        0.14656
C         -4.91561       -1.38526       -0.04734
O         -0.03395        1.06623        1.36957
O         -0.47626        2.06218       -0.67793
H          5.53893       -1.16964        0.89077
H          3.98952       -2.13228        0.71864
H          5.18332       -0.23735       -1.44839
H          3.63588       -1.21283       -1.57742
H          4.25080        0.95291        0.54576
H          2.10951        0.01228        1.42502
H          1.98056        2.00765        0.03119
H          1.81911        0.89949       -1.34305
H         -0.12038       -0.46344       -1.60529
H          0.72939       -1.64017        0.18849
H         -0.55442       -1.36415        1.12422
H         -2.25373        0.59915       -1.59733
H         -2.40201       -1.12848       -1.24835
H         -2.71576        1.20675        0.69786
H         -2.65963       -0.48745        1.23926
H         -4.69538        0.65311       -0.73337
H         -4.96618        0.49591        0.99512
H         -6.00248       -1.41835       -0.17835
H         -4.46350       -1.85410       -0.92755
H         -4.66366       -2.00365        0.82255
H         -0.98222        1.08184        1.55856
H         -0.04288        2.85452       -0.32993
