39
omegacsd_GALSEM_03.log	Energy: -1046257.3831483
S         -2.55063        0.28137        1.43610
O         -3.84160        0.77996        1.84758
O         -1.49281        0.05299        2.42004
N         -2.71905       -1.25452        0.75231
C         -3.66346       -1.56812       -0.22488
O         -4.28162       -0.70775       -0.80852
C         -3.81382       -3.05623       -0.47909
C         -4.71285       -3.34057       -1.67430
C         -1.93623        1.27849        0.12636
C         -0.56541        1.32495       -0.22461
N          0.39455        0.63137        0.45734
C          1.79595        0.80107        0.29364
C          2.59001       -0.33176        0.13668
C          3.97095       -0.20091        0.03787
C          4.56883        1.05441        0.07796
C          3.77292        2.18469        0.23045
C          2.39348        2.06179        0.34974
C          4.81906       -1.42357       -0.18483
F          4.24451       -2.52873        0.32314
F          6.03109       -1.29601        0.38285
F          5.02034       -1.65046       -1.49621
C         -0.26595        2.11286       -1.35271
C         -1.27842        2.79301       -1.99954
N         -2.57109        2.77770       -1.64588
C         -2.87296        2.01577       -0.60418
H         -2.27372       -1.98270        1.29809
H         -4.22271       -3.50998        0.43381
H         -2.81664       -3.49306       -0.62046
H         -5.70173       -2.89977       -1.52660
H         -4.29378       -2.91017       -2.58783
H         -4.82695       -4.41884       -1.81766
H          0.09159        0.17953        1.31387
H          2.12410       -1.31149        0.09487
H          5.64795        1.14463        0.00019
H          4.23205        3.16797        0.27734
H          1.77239        2.94134        0.49709
H          0.75268        2.18207       -1.71747
H         -1.03550        3.40052       -2.87021
H         -3.91814        1.96629       -0.31126
