24
omegapdb_1gs5_11.log	Energy: -441843.6328580
C         -0.59318        0.57983        0.71203
C         -1.61241        1.54964        0.10671
O         -2.80727        1.39629        0.15240
O         -1.03406        2.64231       -0.41886
C          0.75644        0.56984       -0.01519
C          1.75760       -0.35515        0.67844
C          3.11603       -0.36247        0.02212
O          3.75829       -1.34434       -0.25954
O          3.57640        0.88686       -0.20789
N         -1.18950       -0.73544        0.84383
C         -1.70086       -1.36218       -0.26992
O         -1.44924       -0.97718       -1.39766
C         -2.59263       -2.54981        0.01604
H         -0.42065        0.94611        1.73403
H         -1.76052        3.19937       -0.74481
H          0.59678        0.25190       -1.04852
H          1.14770        1.59003       -0.03705
H          1.90384       -0.03490        1.71989
H          1.40198       -1.38729        0.69639
H          4.44902        0.77580       -0.62005
H         -1.64848       -0.93560        1.71996
H         -3.62112       -2.19399        0.14200
H         -2.29589       -3.08721        0.92178
H         -2.56510       -3.22595       -0.83948
