40
omegapdb_2byh_10.log	Energy: -1016187.7460662
O          6.75683       -2.44550        0.09918
C          6.65860       -1.25424        0.32257
C          7.87049       -0.43817        0.72390
C          5.33763       -0.56165        0.20408
C          5.16884        0.80097        0.46010
C          3.92144        1.39019        0.33530
C          2.81079        0.62894       -0.04846
C          2.96703       -0.73821       -0.30706
C          4.22328       -1.31113       -0.17794
N          1.58367        1.30623       -0.15616
C          0.35005        0.80383       -0.50484
O          0.14081       -0.37650       -0.73495
C         -0.70294        1.84432       -0.58717
C         -0.54738        3.21261       -0.92272
N         -1.69424        3.86449       -0.90188
N         -2.59009        2.93350       -0.54260
C         -2.06700        1.69269       -0.35458
C         -2.93213        0.56581        0.03766
C         -2.81792       -0.68241       -0.57981
C         -3.68785       -1.70741       -0.26051
Cl        -3.54759       -3.26003       -1.04226
C         -4.70160       -1.52237        0.69033
O         -5.57583       -2.48771        1.03090
C         -4.80965       -0.29030        1.32644
C         -3.93484        0.73912        1.01133
O         -4.11607        1.91581        1.67794
H          7.72201        0.02736        1.70465
H          8.05656        0.36379        0.00065
H          8.73771       -1.09887        0.76345
H          6.01265        1.41719        0.75962
H          3.80356        2.45383        0.53537
H          2.11082       -1.33104       -0.59813
H          4.36361       -2.37044       -0.37304
H          1.60568        2.27844        0.11452
H          0.35716        3.73647       -1.20984
H         -3.57087        3.17609       -0.52233
H         -2.02804       -0.84729       -1.30346
H         -5.37353       -3.29029        0.52593
H         -5.57178       -0.14099        2.08318
H         -3.29873        2.43250        1.64594
