50
omegapdb_1xom_06.log	Energy: -710693.7313063
O          6.06924        0.38457        0.12223
C          5.23848        1.42055       -0.11921
O          5.64506        2.54486       -0.29028
C          3.78878        0.99423       -0.14476
C          3.52542       -0.02158       -1.26761
C          2.05124       -0.42533       -1.30384
C          1.55001       -0.99115        0.05015
C          1.87675        0.01538        1.18399
C          3.35150        0.41753        1.21110
C          2.31011       -2.22919        0.32370
N          2.93673       -3.17873        0.53576
C          0.05044       -1.30004       -0.00133
C         -0.45657       -2.57615        0.16212
C         -1.83701       -2.80757        0.11116
C         -2.72228       -1.76551       -0.10100
O         -4.07165       -1.88223       -0.16511
C         -4.61531       -3.17431       -0.00983
C         -2.21642       -0.45295       -0.27051
C         -0.84862       -0.24031       -0.22020
O         -3.15665        0.49949       -0.48692
C         -2.75528        1.86614       -0.61004
C         -4.00063        2.63995       -1.07496
C         -4.60370        3.29993        0.18934
C         -3.80548        2.71958        1.36729
C         -2.42293        2.45880        0.76386
H          6.96788        0.75354        0.11900
H          3.22117        1.91085       -0.34718
H          4.15522       -0.90568       -1.11008
H          3.80830        0.40684       -2.23628
H          1.87327       -1.16700       -2.09007
H          1.43557        0.44981       -1.54692
H          1.57682       -0.41704        2.14466
H          1.25693        0.90728        1.02867
H          3.97524       -0.45199        1.45246
H          3.51118        1.15797        2.00378
H          0.20963       -3.41623        0.33615
H         -2.20371       -3.81998        0.24368
H         -4.25728       -3.85805       -0.79073
H         -4.37580       -3.59635        0.97507
H         -5.69637       -3.05809       -0.09987
H         -0.46679        0.76743       -0.34640
H         -1.93257        1.93392       -1.33356
H         -3.72335        3.38955       -1.82291
H         -4.68921        1.93887       -1.55398
H         -4.46662        4.38691        0.14791
H         -5.67796        3.11591        0.28301
H         -4.24250        1.76802        1.68986
H         -3.77609        3.38705        2.23421
H         -1.79398        1.80004        1.37109
H         -1.88508        3.40610        0.62213
