57
omegacsd_SPIRIL_17.log	Energy: -797190.7928689
C          2.47264       -1.10025       -1.21986
C          3.65215       -0.88127       -0.25873
C          4.70858       -1.98042       -0.42594
O          4.50169       -3.17716       -0.48007
N          5.91921       -1.36485       -0.46750
C          5.83762        0.06645       -0.30154
N          4.43913        0.31917       -0.61024
C          3.93164        1.61757       -0.31240
C          3.13793        2.25616       -1.27022
C          2.59270        3.51031       -1.01983
C          2.85746        4.16095        0.18194
C          3.67225        3.54823        1.12846
C          4.20288        2.28426        0.88743
C          3.13325       -0.93426        1.20541
C          1.67873       -0.48791        1.29843
N          0.80543       -1.44050        0.61225
C         -0.50538       -0.86229        0.36480
C         -1.60480       -1.92243        0.22786
C         -2.93838       -1.30568       -0.09700
C         -3.87913       -0.90544        0.76960
C         -5.15514       -0.31673        0.26902
C         -5.79063        0.72821        0.95062
C         -6.97079        1.29147        0.47818
C         -7.52708        0.79154       -0.68749
C         -6.94194       -0.25325       -1.38394
C         -5.76282       -0.80209       -0.89545
F         -8.67228        1.32755       -1.14929
C         -3.72537       -1.00196        2.26795
C          1.43021       -2.02377       -0.58556
H          2.00888       -0.13135       -1.43940
H          2.83454       -1.51168       -2.16807
H          6.77945       -1.88955       -0.47546
H          6.13572        0.35635        0.72242
H          6.48393        0.60023       -1.00889
H          2.97103        1.75789       -2.22092
H          1.97244        3.98813       -1.77384
H          2.43884        5.14498        0.37539
H          3.89179        4.05190        2.06655
H          4.82897        1.81688        1.64349
H          3.76260       -0.31350        1.85302
H          3.20474       -1.96454        1.57382
H          1.58506        0.53273        0.88118
H          1.37161       -0.42547        2.35039
H         -0.50867       -0.19832       -0.52346
H         -0.75974       -0.22335        1.22030
H         -1.33780       -2.63007       -0.56674
H         -1.63390       -2.50258        1.15632
H         -3.12311       -1.12835       -1.15717
H         -5.35245        1.12495        1.86275
H         -7.46009        2.10896        0.99854
H         -7.41766       -0.63273       -2.28285
H         -5.31350       -1.64283       -1.41728
H         -4.62228       -1.43329        2.72649
H         -2.86549       -1.61248        2.55361
H         -3.58051       -0.01057        2.71565
H          1.90936       -2.97736       -0.33559
H          0.64738       -2.24670       -1.31795
