34
omegapdb_2f7p_01.log	Energy: -719065.1903344
C         -1.22121       -0.58444        0.81891
N          0.14705       -0.12969        0.57380
C          1.14294       -1.20042        0.55922
C          2.50563       -0.65789        0.19775
C          3.55869       -0.69203        1.10826
C          4.80762       -0.17512        0.76860
C          5.01032        0.38341       -0.48779
C          3.96134        0.42272       -1.40527
C          2.71844       -0.09477       -1.06366
C         -2.07022        0.63744        1.26417
O         -1.33289        1.55652        2.02521
C         -2.60792        1.28527       -0.06060
O         -2.11999        2.59804       -0.20910
C         -2.10728        0.36810       -1.21135
O         -0.90414        0.90171       -1.73979
C         -1.86034       -0.98613       -0.52572
S         -3.35310       -2.01485       -0.36506
H         -1.25968       -1.40153        1.55512
H          0.37209        0.55413        1.29562
H          1.18737       -1.72654        1.52695
H          0.83287       -1.94323       -0.18715
H          3.40213       -1.12744        2.09358
H          5.62030       -0.20780        1.48977
H          5.98290        0.78902       -0.75435
H          4.11456        0.85752       -2.38967
H          1.89936       -0.06306       -1.78102
H         -2.91165        0.27357        1.86837
H         -1.35497        2.37932        1.49845
H         -3.70213        1.33118       -0.04106
H         -1.43699        2.52286       -0.90540
H         -2.82020        0.30141       -2.03640
H         -0.21992        0.69230       -1.05761
H         -1.18549       -1.59666       -1.13438
H         -4.07224       -1.17655        0.39782
