39
omegacsd_GALSEM_08.log	Energy: -1046258.6967829
S          2.86668       -1.02788       -0.80990
O          4.23329       -1.36531       -0.48990
O          2.19140       -1.66026       -1.94289
N          2.74812        0.60863       -1.19531
C          3.25219        1.63126       -0.39203
O          3.68638        1.40998        0.71491
C          3.16992        3.00719       -1.02593
C          3.71877        4.08894       -0.10604
C          1.87716       -1.19755        0.63392
C          0.46441       -1.21236        0.58494
N         -0.21234       -1.14804       -0.60842
C         -1.60030       -0.99082       -0.78332
C         -2.32488       -0.04175       -0.06078
C         -3.68582        0.11238       -0.29651
C         -4.33779       -0.64730       -1.26264
C         -3.60735       -1.57425       -1.99749
C         -2.25063       -1.75281       -1.75713
C         -4.44181        1.17753        0.45098
F         -3.92129        1.39342        1.67271
F         -5.73558        0.84991        0.61148
F         -4.41048        2.35360       -0.20338
C         -0.17775       -1.32312        1.82949
C          0.58231       -1.40234        2.98236
N          1.92001       -1.38292        3.02956
C          2.53831       -1.28063        1.86021
H          2.43532        0.78460       -2.14224
H          3.71995        2.98164       -1.97589
H          2.12039        3.20355       -1.28240
H          3.63579        5.07032       -0.58178
H          4.76986        3.90220        0.12834
H          3.16966        4.11089        0.83873
H          0.32022       -1.43236       -1.42371
H         -1.82773        0.58206        0.67570
H         -5.40140       -0.51556       -1.43329
H         -4.10107       -2.17533       -2.75580
H         -1.68569       -2.49287       -2.31904
H         -1.25852       -1.37854        1.89092
H          0.07813       -1.49854        3.94270
H          3.62476       -1.25368        1.87082
