35
omegacsd_DIAVER_07.log	Energy: -548602.4803620
N         -4.27604        0.72848       -0.81563
C         -4.40300        0.37706        0.46802
N         -3.51939       -0.30435        1.21026
C         -2.40882       -0.70219        0.59176
C         -2.15851       -0.42215       -0.77299
C         -3.14887        0.30964       -1.39818
C         -0.92391       -0.91215       -1.48249
C          0.38579       -0.34184       -0.95990
C          1.50895       -1.16255       -0.81087
C          2.72526       -0.66027       -0.37244
C          2.84657        0.70726       -0.06411
C          1.72866        1.52807       -0.19209
C          0.51405        1.00415       -0.63371
O          4.07673        1.12525        0.34055
C          4.24268        2.50226        0.60281
O          3.80093       -1.50358       -0.30135
C          4.26622       -1.76809        1.01404
N         -1.52534       -1.43972        1.33305
N         -5.56781        0.73197        1.08960
H         -3.03241        0.57800       -2.45017
H         -0.87430       -2.00846       -1.42519
H         -1.01990       -0.67062       -2.54947
H          1.46175       -2.22258       -1.05258
H          1.79291        2.58547        0.04325
H         -0.34702        1.66278       -0.72264
H          5.29028        2.63275        0.87808
H          3.60500        2.83462        1.43238
H          4.02341        3.10718       -0.28620
H          3.46457       -2.19738        1.63018
H          4.65082       -0.86167        1.49167
H          5.07125       -2.49887        0.91264
H         -0.55149       -1.41130        1.06574
H         -1.70574       -1.43017        2.32655
H         -6.11352        1.44679        0.63557
H         -5.56724        0.71017        2.09655
