39
omegacsd_GALSEM_14.log	Energy: -1046252.7846146
S          2.63493       -0.25418       -1.08641
O          3.90691       -0.64122       -1.64842
O          1.63345        0.41974       -1.90760
N          2.91072        0.66705        0.31142
C          3.55718        1.90989        0.24382
O          4.11985        2.28376       -0.75559
C          3.49311        2.69284        1.54343
C          4.30301        3.97968        1.47090
C          1.86983       -1.65903       -0.33507
C          0.54089       -1.62398        0.14250
N         -0.20885       -0.46890        0.05212
C         -1.52380       -0.31060        0.54570
C         -2.50696        0.20551       -0.29710
C         -3.78769        0.43205        0.19319
C         -4.10854        0.13642        1.51399
C         -3.12508       -0.37800        2.35143
C         -1.83549       -0.58926        1.87855
C         -4.85739        0.94041       -0.73664
F         -5.54615       -0.07390       -1.29045
F         -5.74629        1.71409       -0.08944
F         -4.34029        1.66549       -1.74301
C          0.07097       -2.81747        0.70963
C          0.90780       -3.92033        0.75765
N          2.16341       -3.95763        0.29818
C          2.61630       -2.83166       -0.24249
H          2.23076        0.51631        1.04920
H          3.84854        2.04527        2.35516
H          2.43740        2.90815        1.75917
H          5.35665        3.76450        1.27497
H          3.94222        4.61985        0.66196
H          4.22849        4.52950        2.41359
H          0.04647        0.13149       -0.72790
H         -2.27125        0.43188       -1.33340
H         -5.11211        0.31948        1.88471
H         -3.35749       -0.59685        3.38973
H         -1.06082       -0.95637        2.54658
H         -0.94468       -2.89232        1.08102
H          0.53617       -4.84760        1.19081
H          3.63185       -2.83815       -0.63284
