34
omegapdb_2f7p_10.log	Energy: -719060.6041627
C         -0.58297       -0.51396       -0.00678
N          0.05878       -1.31045       -1.03097
C          1.35600       -1.87705       -0.67517
C          2.42485       -0.90260       -0.20672
C          3.00771       -1.03728        1.05227
C          3.98247       -0.14207        1.48930
C          4.38241        0.90443        0.66645
C          3.80393        1.05082       -0.59349
C          2.83537        0.15341       -1.02578
C         -0.28160        1.00774       -0.03702
O         -0.18176        1.40703       -1.38632
C         -1.51971        1.67569        0.64547
O         -2.03550        2.68020       -0.20408
C         -2.55385        0.53263        0.83908
O         -3.84853        1.05835        0.61399
C         -2.10768       -0.53694       -0.14732
S         -2.87548       -2.14629        0.16687
H         -0.31729       -0.92331        0.97814
H          0.13404       -0.73078       -1.86384
H          1.19159       -2.62912        0.10732
H          1.71709       -2.42103       -1.55662
H          2.69503       -1.85406        1.70134
H          4.42643       -0.26276        2.47445
H          5.13988        1.60733        1.00393
H          4.10824        1.86955       -1.24076
H          2.37147        0.29250       -2.00042
H          0.65081        1.24993        0.48611
H         -0.82643        2.13067       -1.48893
H         -1.24730        2.12223        1.60858
H         -2.99780        2.53839       -0.23219
H         -2.47583        0.13869        1.86326
H         -4.44727        0.32872        0.40618
H         -2.36389       -0.20002       -1.15933
H         -2.11757       -2.79673       -0.73082
