40
omegapdb_2byh_12.log	Energy: -1016184.4947326
O         -6.79798       -2.15150        0.78380
C         -6.66968       -1.09922        0.18757
C         -7.86382       -0.42443       -0.45704
C         -5.33110       -0.44229        0.07407
C         -4.23014       -1.06325        0.66745
C         -2.95880       -0.51373        0.60303
C         -2.77134        0.69809       -0.07392
C         -3.86917        1.32993       -0.67180
C         -5.13194        0.76580       -0.59847
N         -1.52815        1.34018       -0.19176
C         -0.29665        0.92763        0.27344
O         -0.11969       -0.13741        0.84371
C          0.78068        1.91453        0.02631
C          0.61348        3.31380       -0.11074
N          1.76492        3.94424       -0.24064
N          2.67558        2.96549       -0.20000
C          2.16636        1.72341       -0.02856
C          3.03808        0.53195        0.00349
C          2.53183       -0.73820       -0.29654
C          3.32630       -1.86959       -0.28877
Cl         2.64663       -3.41605       -0.66877
C          4.68511       -1.77260        0.02675
O          5.42999       -2.89812        0.02789
C          5.21367       -0.51879        0.31852
C          4.40714        0.61527        0.30339
O          4.94711        1.84207        0.57473
H         -8.02401        0.57293       -0.03225
H         -7.71083       -0.30490       -1.53540
H         -8.74823       -1.03867       -0.28175
H         -4.39289       -2.00300        1.18732
H         -2.11304       -1.00681        1.06197
H         -3.72863        2.27340       -1.19652
H         -5.96467        1.27905       -1.07248
H         -1.53194        2.18155       -0.74893
H         -0.30451        3.88922       -0.07439
H          3.65807        3.19270       -0.23252
H          1.47898       -0.85620       -0.51702
H          6.33791       -2.68333        0.27675
H          6.27316       -0.42261        0.55425
H          5.87606        1.73998        0.81683
