36
omegapdb_1qxw_07.log	Energy: -410435.8416104
C         -3.85810       -0.18173        0.27609
C         -4.05270       -1.65878        0.46937
C         -3.03751       -1.15071       -0.51308
N         -1.64781       -1.31617       -0.16692
C         -0.70947       -0.44825       -0.87961
C         -0.42512        0.82471       -0.05331
C          0.89721        1.54930       -0.42892
N          0.74329        2.95013       -0.00355
C          2.18157        0.94642        0.15865
C          2.53276       -0.50162       -0.17991
C          3.94882       -0.87144        0.26258
C          4.29389       -2.33037       -0.02433
O         -0.33204        0.48688        1.30697
O         -1.49785        1.69019       -0.30785
H         -4.62173        0.38048       -0.25289
H         -3.33790        0.38020        1.04411
H         -3.66829       -2.10127        1.38426
H         -4.95435       -2.12501        0.08236
H         -3.28102       -1.24888       -1.57489
H         -1.38573       -2.28781       -0.28860
H         -1.08945       -0.13819       -1.86260
H          0.21635       -1.00607       -1.03136
H          0.95359        1.55754       -1.52662
H          0.95740        3.02134        0.98865
H          1.39911        3.54868       -0.49466
H          2.12125        1.04194        1.25013
H          3.01116        1.59051       -0.17055
H          2.44118       -0.67582       -1.26300
H          1.81982       -1.17266        0.31567
H          4.66957       -0.21453       -0.24371
H          4.05426       -0.67163        1.33766
H          4.21030       -2.55071       -1.09534
H          5.31581       -2.57066        0.28750
H          3.61410       -3.00646        0.50745
H         -0.96410       -0.25126        1.40736
H         -1.13860        2.58077       -0.12562
