25
omegapdb_1m5f_16.log	Energy: -499675.9741113
O         -0.52160       -2.38954       -0.19585
C         -1.75806       -1.90036        0.03744
O         -2.70817       -2.59760        0.27516
C         -1.77333       -0.41295       -0.03601
N         -2.90073        0.19511        0.23867
O         -2.64311        1.52346        0.09944
C         -1.35745        1.71194       -0.26052
C         -0.73022        0.50848       -0.37381
C          0.69917        0.24792       -0.73863
C          1.59040       -0.01700        0.50449
N          1.64882        1.05587        1.47522
C          2.99709       -0.25695       -0.00430
O          3.83884        0.60229       -0.11562
O          3.19409       -1.52813       -0.39421
C         -0.92989        3.12285       -0.46498
H         -0.59510       -3.35612       -0.12545
H          0.76064       -0.60962       -1.41545
H          1.10381        1.11858       -1.27014
H          1.23538       -0.93266        0.98812
H          2.20137        1.82297        1.10219
H          0.71638        1.39431        1.69096
H          4.09744       -1.56464       -0.75124
H         -1.44435        3.56438       -1.32440
H         -1.16608        3.72777        0.41570
H          0.14725        3.17081       -0.64104
