40
omegapdb_2byh_19.log	Energy: -1016188.9096633
O          7.27396       -0.85087        0.13570
C          6.18354       -1.37881        0.22946
C          6.03719       -2.88423        0.18553
C          4.94841       -0.54121        0.38998
C          5.09394        0.84735        0.41248
C          3.98690        1.67043        0.54534
C          2.71323        1.11197        0.67449
C          2.55889       -0.27463        0.67826
C          3.67135       -1.09078        0.52137
N          1.61102        1.98424        0.85395
C          0.33320        1.90501        0.37442
O         -0.53209        2.61493        0.89402
C          0.04796        1.03862       -0.77714
C          0.89545        0.70617       -1.86539
N          0.28274       -0.05601       -2.74822
N         -0.94614       -0.22674       -2.23561
C         -1.16410        0.41124       -1.06383
C         -2.46894        0.24561       -0.39320
C         -2.95970       -1.05631       -0.22730
C         -4.23245       -1.30272        0.25125
Cl        -4.79865       -2.92996        0.44668
C         -5.06946       -0.22614        0.57531
O         -6.31049       -0.49843        1.03338
C         -4.59151        1.06959        0.42808
C         -3.30266        1.32618       -0.04350
O         -2.94944        2.61282       -0.18921
H          5.39003       -3.18928       -0.64434
H          7.02539       -3.32802        0.05751
H          5.58724       -3.25949        1.11155
H          6.09198        1.26303        0.31045
H          4.09863        2.75200        0.54080
H          1.57226       -0.70909        0.80500
H          3.53237       -2.16852        0.51934
H          1.71817        2.72337        1.53748
H          1.92164        1.00856       -2.03138
H         -1.63073       -0.75619       -2.75557
H         -2.32582       -1.90392       -0.47604
H         -6.76560        0.33357        1.21755
H         -5.21260        1.92374        0.68650
H         -2.00218        2.71766        0.07210
