24
omegapdb_1gs5_22.log	Energy: -441834.9468367
C         -0.55072        0.38862        0.71789
C         -1.01338        1.66421       -0.01716
O         -2.13937        1.84750       -0.38720
O         -0.07811        2.62660       -0.18038
C          0.63691       -0.35030        0.06973
C          1.98134        0.36952        0.16028
C          3.14263       -0.58775       -0.00710
O          3.08649       -1.78869        0.07706
O          4.29007        0.07619       -0.24363
N         -1.68297       -0.49249        0.91933
C         -2.33438       -1.05833       -0.16165
O         -1.82088       -1.16629       -1.25793
C         -3.73475       -1.54519        0.14059
H         -0.23131        0.71179        1.72045
H          0.75733        2.36772        0.23068
H          0.72801       -1.30829        0.58967
H          0.39492       -0.58440       -0.96810
H          2.12636        0.84483        1.14369
H          2.10002        1.15135       -0.59892
H          4.98497       -0.59906       -0.31646
H         -2.29132       -0.22229        1.67966
H         -4.42436       -0.69715        0.06391
H         -4.01662       -2.29107       -0.60320
H         -3.81864       -1.97319        1.14447
