25
omegapdb_1m5f_00.log	Energy: -499682.1870838
O          3.08154       -2.16795       -0.31669
C          1.83880       -1.69230       -0.25621
O          0.85514       -2.39768       -0.35586
C          1.78005       -0.22136       -0.06376
N          2.84193        0.43300        0.34095
O          2.45574        1.73492        0.41486
C          1.16498        1.85894        0.04367
C          0.65790        0.63608       -0.27533
C         -0.72897        0.30800       -0.74000
C         -1.71127        0.04732        0.41179
N         -1.43060       -1.14248        1.21476
C         -3.14475       -0.03332       -0.15097
O         -3.55624        0.73585       -0.98520
O         -3.87938       -1.00237        0.38606
C          0.59538        3.23284        0.05189
H          3.00202       -3.13071       -0.42623
H         -1.13422        1.12835       -1.33981
H         -0.70237       -0.57424       -1.38872
H         -1.71254        0.92175        1.07619
H         -0.85424       -1.80051        0.69199
H         -0.92828       -0.91078        2.06397
H         -3.26325       -1.46940        1.00123
H         -0.41522        3.22233       -0.36408
H          1.21322        3.90875       -0.54675
H          0.54843        3.63139        1.07040
