45
omegacsd_FABSOQ10_03.log	Energy: -924264.9221982
S          0.25488       -1.57054       -1.00527
C          1.23058       -2.29463        0.22923
C          0.46904       -2.99370        1.11244
C         -0.92571       -2.95185        0.79570
C         -1.19453       -2.22454       -0.32352
C         -2.55090       -1.94517       -0.93619
O         -3.46924       -2.95503       -0.55883
C         -3.11171       -0.61052       -0.48736
C         -3.71960       -0.48285        0.76606
C         -4.20560        0.73794        1.19410
C         -4.08750        1.86905        0.37686
O         -4.59499        3.02281        0.89032
C         -4.49225        4.18696        0.10172
C         -3.48355        1.75701       -0.87247
C         -3.00590        0.51370       -1.29210
C          2.73321       -2.15840        0.21750
O          3.18776       -2.70213        1.44666
C          3.19782       -0.72653        0.03033
C          2.97900        0.21572        1.03225
C          3.40351        1.53249        0.88914
C          4.05841        1.92138       -0.28264
O          4.51387        3.17773       -0.52858
C          4.30010        4.15978        0.46232
C          4.28355        0.98470       -1.29410
C          3.85860       -0.32497       -1.13148
H          0.89715       -3.52098        1.95674
H         -1.70089       -3.43385        1.38280
H         -2.44106       -1.91519       -2.03305
H         -3.04543       -3.80456       -0.74088
H         -3.81872       -1.36055        1.39882
H         -4.68539        0.84934        2.16211
H         -5.03080        4.07847       -0.84892
H         -3.44423        4.44002       -0.10644
H         -4.94816        4.98952        0.68389
H         -3.38405        2.61415       -1.53010
H         -2.54269        0.43289       -2.27434
H          3.12684       -2.75510       -0.62354
H          4.13639       -2.52887        1.49627
H          2.46503       -0.08996        1.94088
H          3.21560        2.24242        1.68778
H          3.22996        4.31267        0.65242
H          4.80006        3.89740        1.40371
H          4.73189        5.08204        0.07058
H          4.79722        1.30755       -2.19471
H          4.04443       -1.04933       -1.92309
