61
omegapdb_1v2k_11.log	Energy: -1425430.7640466
N         10.35996       -1.48870       -0.92586
C          9.80235       -1.89579        0.21934
C          8.50396       -1.61648        0.60944
C          7.67521       -0.85351       -0.23198
C          8.25317       -0.42710       -1.43664
C          9.57228       -0.76465       -1.71812
N          6.37233       -0.52131        0.14574
C          5.61905        0.37068       -0.72088
C          4.43191        0.98540        0.01676
C          3.52314       -0.09019        0.62965
C          4.37366       -0.99644        1.51888
C          5.54624       -1.57446        0.73550
C          2.41808        0.57633        1.44386
O          2.58470        0.83766        2.62739
N          1.25771        0.90567        0.79583
C          0.17780        1.51003        1.57052
C         -1.16099        0.95296        1.11051
N         -1.38518        1.19668       -0.32846
C         -0.16720        1.46614       -1.11129
C          0.96621        0.58931       -0.59977
S         -2.65279        2.22163       -0.70693
O         -2.60243        2.38275       -2.15109
O         -2.65535        3.38940        0.16673
C         -4.06855        1.23935       -0.27044
C         -4.44589        0.21500       -1.09742
C         -5.57803       -0.57100       -0.77057
C         -6.30505       -0.27670        0.41277
C         -5.88765        0.80451        1.23470
C         -4.79328        1.55594        0.90254
C         -7.43886       -1.06592        0.74357
C         -7.81464       -2.09148       -0.07756
C         -7.10070       -2.39434       -1.26383
C         -6.00748       -1.64563       -1.59713
Cl        -9.20019       -3.06019        0.32256
H         10.44250       -2.48198        0.87766
H          8.15758       -1.96390        1.57714
H          7.69455        0.14473       -2.16872
H         10.01594       -0.43154       -2.65611
H          5.26482       -0.15629       -1.62765
H          6.27818        1.17928       -1.04784
H          4.80152        1.62577        0.82661
H          3.87653        1.62811       -0.67847
H          3.09525       -0.69803       -0.17930
H          4.73731       -0.41533        2.37139
H          3.76742       -1.81723        1.91928
H          5.17016       -2.24383       -0.06078
H          6.15780       -2.18606        1.39960
H          0.18301        2.60294        1.46628
H          0.35330        1.27640        2.62205
H         -1.95915        1.41863        1.69508
H         -1.20120       -0.12750        1.29150
H          0.13543        2.52111       -1.04780
H         -0.36889        1.23771       -2.15925
H          0.69288       -0.46893       -0.72245
H          1.84297        0.78336       -1.22447
H         -3.88572        0.00921       -2.00637
H         -6.45735        1.03381        2.13193
H         -4.47664        2.40033        1.50739
H         -8.00164       -0.84947        1.64719
H         -7.43406       -3.21547       -1.89045
H         -5.45210       -1.86545       -2.50574
