45
omegacsd_FABSOQ10_10.log	Energy: -924265.5056941
S          0.54095        0.45627       -1.05074
C          1.01677        1.29956        0.38286
C          0.02674        1.26496        1.31921
C         -1.12743        0.53836        0.89278
C         -0.99947        0.03986       -0.36854
C         -1.94756       -0.84589       -1.14912
O         -1.56521       -2.21108       -1.05027
C         -3.36942       -0.71437       -0.64777
C         -4.19118        0.30298       -1.11591
C         -5.48823        0.46982       -0.63334
C         -5.97400       -0.40383        0.33921
O         -7.22027       -0.33885        0.88105
C         -8.08370        0.67292        0.41214
C         -5.15589       -1.43364        0.81391
C         -3.86923       -1.58491        0.32426
C          2.35788        1.98082        0.47764
O          2.52838        2.92529       -0.56491
C          3.51650        0.99987        0.42768
C          4.50327        1.08695       -0.54300
C          5.56892        0.18424       -0.57060
C          5.64902       -0.81841        0.39150
O          6.64055       -1.74723        0.46401
C          7.65897       -1.69051       -0.51010
C          4.65714       -0.91347        1.37535
C          3.60712       -0.01507        1.38738
H          0.11702        1.74791        2.28810
H         -2.02046        0.39932        1.49297
H         -1.92107       -0.53112       -2.20531
H         -0.60285       -2.25449       -1.12098
H         -3.81936        0.98931       -1.87519
H         -6.10262        1.27317       -1.02608
H         -8.27718        0.56893       -0.66359
H         -7.67623        1.67331        0.60900
H         -9.01979        0.55101        0.95939
H         -5.55744       -2.10771        1.56502
H         -3.23770       -2.39329        0.67999
H          2.37774        2.48923        1.45649
H          1.73695        3.47790       -0.58343
H          4.44500        1.87148       -1.28999
H          6.32276        0.28044       -1.34503
H          7.25637       -1.83554       -1.52117
H          8.19952       -0.73570       -0.47167
H          8.34778       -2.50382       -0.27594
H          4.73604       -1.70325        2.11658
H          2.83533       -0.10386        2.15040
