57
omegacsd_SPIRIL_16.log	Energy: -797194.1855992
C          2.17959       -0.52019        1.42379
C          2.94480       -0.81310        0.10594
C          3.23373       -2.31886        0.01041
O          2.44664       -3.22039        0.22843
N          4.52197       -2.46179       -0.38431
C          5.25774       -1.22734       -0.45557
N          4.30608       -0.25853        0.05775
C          4.63741        1.09308       -0.00917
C          5.94196        1.48301       -0.36272
C          6.30156        2.82542       -0.40102
C          5.38394        3.82260       -0.09558
C          4.09147        3.44664        0.25568
C          3.71829        2.11008        0.30217
C          2.09138       -0.41603       -1.12234
C          0.66750       -0.97983       -1.05415
N         -0.01444       -0.69771        0.21727
C         -0.65801       -1.87660        0.78732
C         -1.89227       -2.30167       -0.01935
C         -2.93764       -1.22396       -0.06829
C         -4.26867       -1.36126       -0.00079
C         -5.14704       -0.15534       -0.04034
C         -6.40497       -0.19835       -0.65356
C         -7.22590        0.92270       -0.71071
C         -6.78279        2.10128       -0.13523
C         -5.55280        2.18517        0.49709
C         -4.74800        1.05375        0.54376
F         -7.57253        3.19150       -0.18071
C         -4.97141       -2.69501        0.08575
C          0.78734        0.06855        1.15749
H          2.06016       -1.46038        1.97310
H          2.77231        0.14936        2.05564
H          4.94436       -3.37245       -0.47423
H          6.16170       -1.26460        0.16923
H          5.56570       -1.00134       -1.49091
H          6.69507        0.74111       -0.60778
H          7.32029        3.08690       -0.67730
H          5.66814        4.87021       -0.12992
H          3.35128        4.20430        0.50144
H          2.70313        1.86492        0.58697
H          2.57748       -0.77911       -2.03652
H          2.06863        0.67588       -1.19903
H          0.72404       -2.06610       -1.20209
H          0.09024       -0.57141       -1.89591
H         -0.98098       -1.62323        1.80506
H          0.03968       -2.72766        0.85922
H         -1.57750       -2.55559       -1.04257
H         -2.28300       -3.22949        0.41338
H         -2.52278       -0.22321       -0.18849
H         -6.75258       -1.12161       -1.10962
H         -8.19751        0.89311       -1.19399
H         -5.24713        3.12103        0.95454
H         -3.79443        1.10318        1.06261
H         -5.43093       -2.96522       -0.87365
H         -4.28633       -3.50354        0.35034
H         -5.77385       -2.66807        0.83151
H          0.87221        1.09724        0.78022
H          0.23367        0.14308        2.09943
