50
omegapdb_1xom_13.log	Energy: -710685.9599969
O          6.23019        1.79860       -0.42803
C          5.55036        0.68029       -0.75487
O          6.09620       -0.38997       -0.88346
C          4.06957        0.95563       -0.90253
C          3.31118       -0.29766       -1.36985
C          2.84925       -1.12595       -0.17483
C          1.78770       -0.35327        0.68201
C          2.01771        1.17396        0.53336
C          3.50722        1.49289        0.43923
C          2.03033       -0.69491        2.10094
N          2.24688       -0.95674        3.20760
C          0.35758       -0.79795        0.33332
C         -0.00654       -2.12545        0.54885
C         -1.27783       -2.59296        0.23049
C         -2.22693       -1.73157       -0.31561
O         -3.48575       -2.09129       -0.67882
C         -3.85022       -3.44557       -0.51231
C         -1.88193       -0.38406       -0.51511
C         -0.60851        0.06356       -0.19010
O         -2.76453        0.49018       -1.08837
C         -3.87186        0.87706       -0.27409
C         -4.86849        1.65541       -1.12809
C         -5.67634        2.50349       -0.12188
C         -4.87704        2.46091        1.20914
C         -3.51546        1.85738        0.84327
H          7.15829        1.52965       -0.32661
H          3.97380        1.74791       -1.65587
H          2.44549       -0.00585       -1.97664
H          3.96228       -0.90399       -2.00525
H          2.42337       -2.07788       -0.50317
H          3.72367       -1.36621        0.44048
H          1.53222        1.52295       -0.38346
H          1.54697        1.70369        1.36784
H          4.03133        1.03703        1.28970
H          3.68122        2.56975        0.51370
H          0.70991       -2.81908        0.98456
H         -1.51494       -3.63625        0.41000
H         -3.20495       -4.10777       -1.10338
H         -3.80956       -3.74642        0.54245
H         -4.87676       -3.52745       -0.87236
H         -0.41442        1.11605       -0.36752
H         -4.34310       -0.02090        0.14589
H         -4.28907        2.29407       -1.80523
H         -5.48841        0.99961       -1.74600
H         -6.68528        2.10271        0.01902
H         -5.79568        3.52917       -0.48463
H         -4.78384        3.44541        1.67729
H         -5.38570        1.81303        1.93270
H         -2.84809        2.62291        0.42498
H         -3.00422        1.38764        1.68996
