39
omegacsd_GALSEM_05.log	Energy: -1046258.5461179
S          2.35662       -0.18623       -1.58027
O          1.18528       -0.73249       -2.26455
O          3.54368        0.16295       -2.32412
N          2.71065       -1.40011       -0.46402
C          3.78981       -1.34328        0.41784
O          4.42002       -0.32373        0.58027
C          4.06635       -2.64947        1.13798
C          5.13899       -2.49132        2.20677
C          1.87383        1.18500       -0.59086
C          0.59817        1.27372        0.01223
N         -0.35301        0.30141       -0.17248
C         -1.60272        0.21219        0.47112
C         -2.72505       -0.11992       -0.29134
C         -3.95683       -0.28182        0.32614
C         -4.09790       -0.10017        1.69979
C         -2.98016        0.22878        2.45517
C         -1.73445        0.37069        1.85204
C         -5.17625       -0.63218       -0.48335
F         -4.88143       -0.87181       -1.77194
F         -6.08342        0.36111       -0.45428
F         -5.78505       -1.72892        0.00447
C          0.37798        2.42989        0.78002
C          1.38595        3.36848        0.90212
N          2.59784        3.27937        0.34001
C          2.81657        2.19530       -0.39277
H          2.22818       -2.27138       -0.64912
H          4.37137       -3.38772        0.38429
H          3.12755       -3.02005        1.56993
H          4.82656       -1.77225        2.96875
H          5.33631       -3.45094        2.69304
H          6.06903       -2.12203        1.76786
H         -0.22552       -0.27526       -0.99757
H         -2.63191       -0.24835       -1.36572
H         -5.06921       -0.22475        2.16937
H         -3.07165        0.35851        3.52984
H         -0.85729        0.58796        2.45498
H         -0.58379        2.60552        1.24770
H          1.20371        4.26744        1.48912
H          3.79403        2.09575       -0.85714
