39
omegacsd_FIBREN_18.log	Energy: -667542.2486200
N         -2.52701        1.41152        1.23602
C         -1.21755        1.60431        1.05475
N         -0.38788        0.82814        0.32985
C         -0.86829       -0.22375       -0.33066
C         -2.23541       -0.52212       -0.20553
C         -2.95646        0.34006        0.58889
O         -4.24519       -0.09966        0.58346
C         -4.22283       -1.20865       -0.22420
N         -3.07048       -1.50941       -0.72069
C         -5.51822       -1.90812       -0.41801
N         -0.03105       -0.97113       -1.09200
C          1.34756       -0.64159       -1.42524
C          1.53791        0.80270       -1.95464
C          1.59584        2.01926       -1.02970
O          1.08412        3.06414       -1.34349
O          2.38227        1.95170        0.05821
C          2.36610       -1.04986       -0.36042
C          3.71683       -1.12463       -0.72148
C          4.68507       -1.48777        0.20682
C          4.31683       -1.78448        1.51688
C          2.97798       -1.71720        1.88464
C          2.00715       -1.35402        0.95296
C         -0.58074        2.79899        1.69898
H         -5.90411       -2.27636        0.53765
H         -5.36961       -2.74898       -1.09661
H         -6.26251       -1.22608       -0.84013
H         -0.45376       -1.75321       -1.56850
H          1.56161       -1.27286       -2.29599
H          0.74815        1.01508       -2.67895
H          2.48630        0.81810       -2.50888
H          2.59006        1.02881        0.27181
H          4.01422       -0.90228       -1.74548
H          5.72794       -1.54245       -0.09397
H          5.07122       -2.06726        2.24596
H          2.68106       -1.94671        2.90459
H          0.96553       -1.30191        1.25228
H          0.20960        2.47894        2.38531
H         -1.32785        3.38089        2.24078
H         -0.10318        3.41420        0.92834
