39
omegacsd_GALSEM_12.log	Energy: -1046258.5719838
S         -2.35406       -0.17284       -1.58292
O         -1.18342       -0.71394       -2.27245
O         -3.54184        0.18215       -2.32283
N         -2.70698       -1.39511       -0.47555
C         -3.78502       -1.34495        0.40808
O         -4.41534       -0.32682        0.57867
C         -4.05980       -2.65633        1.11945
C         -5.13299       -2.50679        2.18893
C         -1.86994        1.19077       -0.58366
C         -0.59427        1.27342        0.02005
N          0.35520        0.30045       -0.17058
C          1.60243        0.20235        0.47635
C          2.72486       -0.13450       -0.28128
C          3.95435       -0.30845        0.34132
C          4.09019       -0.13531        1.71519
C          2.97001        0.19879        2.46727
C          1.72936        0.35329        1.85989
C          5.16999       -0.62573       -0.48749
F          4.84582       -1.24256       -1.63731
F          5.84734        0.49040       -0.81323
F          6.02456       -1.42416        0.17683
C         -0.37211        2.42410        0.79543
C         -1.37888        3.36306        0.92457
N         -2.59112        3.27926        0.36240
C         -2.81141        2.20078       -0.37813
H         -2.22459       -2.26489       -0.66768
H         -4.36333       -3.39028        0.36098
H         -3.12050       -3.02805        1.54933
H         -6.06372       -2.13682        1.75207
H         -4.82218       -1.79160        2.95521
H         -5.32841       -3.46968        2.66947
H          0.22826       -0.26947       -1.00043
H          2.63411       -0.26305       -1.35637
H          5.05672       -0.27500        2.18902
H          3.05732        0.31965        3.54333
H          0.85067        0.57242        2.45992
H          0.59022        2.59551        1.26356
H         -1.19530        4.25768        1.51774
H         -3.78916        2.10567       -0.84284
