44
omegacsd_CUHNEY10_13.log	Energy: -1049278.4012758
Cl        -4.15323       -3.36084       -0.46208
C         -2.52556       -2.79423       -0.27291
C         -2.12229       -1.61756       -0.88572
N         -0.88832       -1.13216       -0.76761
C         -0.00458       -1.81370       -0.04274
N          1.27839       -1.23745        0.01064
C          2.42765       -1.83649        0.53102
O          2.50920       -2.90813        1.08468
C          3.53290       -0.87314        0.22975
N          4.81743       -1.01410        0.53123
C          5.56494        0.01761        0.13772
C          5.03334        1.13638       -0.51883
N          3.73719        1.26214       -0.81216
C          3.00966        0.22284       -0.42747
C          1.51958        0.06965       -0.59590
O          0.83675        1.06372        0.13817
C          0.14331        1.98154       -0.60920
O          0.20839        2.04279       -1.81898
N         -0.58219        2.80741        0.18446
C         -0.85783        2.55453        1.59058
C         -2.27793        1.97560        1.74617
N         -3.22134        2.52066        0.76421
C         -2.79978        3.83121        0.30226
C         -1.45219        3.79605       -0.44866
C         -3.52736        1.61052       -0.32733
C         -0.31540       -3.01051        0.61708
C         -1.60422       -3.50062        0.49281
H         -2.81731       -1.04474       -1.49573
H          6.62986       -0.03602        0.35129
H          5.68436        1.95623       -0.81362
H          1.19189        0.10458       -1.63685
H         -0.76648        3.50732        2.12667
H         -0.10707        1.87903        1.99754
H         -2.23836        0.88752        1.62123
H         -2.63675        2.17536        2.76613
H         -2.73410        4.49549        1.17317
H         -3.57137        4.25081       -0.35272
H         -0.97768        4.78695       -0.44029
H         -1.58267        3.50164       -1.49213
H         -3.95703        0.68899        0.08095
H         -4.28429        2.06980       -0.97338
H         -2.65944        1.33656       -0.95408
H          0.43649       -3.53145        1.19378
H         -1.89338       -4.42430        0.98525
