40
omegapdb_2byh_18.log	Energy: -1016180.5568032
O         -6.00445        0.05218       -2.56350
C         -6.11549       -0.20451       -1.38022
C         -7.48115       -0.35623       -0.74313
C         -4.90120       -0.37724       -0.52108
C         -4.97067       -0.67742        0.84030
C         -3.81218       -0.82195        1.59131
C         -2.55898       -0.68407        0.98925
C         -2.48194       -0.40352       -0.37999
C         -3.64360       -0.24083       -1.11570
N         -1.41468       -0.89411        1.78534
C         -0.11768       -0.42482        1.65473
O          0.78966       -1.04507        2.18805
C          0.08084        0.86609        0.96566
C         -0.82342        1.95581        0.96111
N         -0.30186        3.03037        0.40344
N          0.92733        2.64430        0.03533
C          1.23587        1.36634        0.35359
C          2.53638        0.76790       -0.00554
C          2.69396       -0.62191       -0.06223
C          3.89281       -1.21625       -0.40919
Cl         4.02812       -2.94197       -0.46740
C          5.00544       -0.42740       -0.71716
O          6.16119       -1.04123       -1.04839
C          4.87166        0.95689       -0.67533
C          3.65886        1.54604       -0.33019
O          3.54256        2.90822       -0.31021
H         -8.24234       -0.20810       -1.51041
H         -7.62145        0.38093        0.05553
H         -7.59879       -1.35135       -0.29997
H         -5.93280       -0.79183        1.33274
H         -3.87135       -1.03497        2.65597
H         -1.51321       -0.31735       -0.86120
H         -3.59990       -0.02172       -2.17849
H         -1.45950       -1.66673        2.43772
H         -1.82688        1.98914        1.36599
H          1.55627        3.30823       -0.38997
H          1.86407       -1.26641        0.19716
H          6.83934       -0.37674       -1.22441
H          5.72529        1.58755       -0.92244
H          4.39881        3.30875       -0.50595
