39
omegacsd_FIBREN_08.log	Energy: -667548.8341813
N          2.55055       -2.02494        1.07767
C          1.26440       -1.98883        1.43823
N          0.34480       -1.07363        1.07992
C          0.70361       -0.06745        0.27736
C          2.03934       -0.00029       -0.15788
C          2.86057       -1.00835        0.28898
O          4.09560       -0.78169       -0.23917
C          3.94134        0.36284       -0.97975
N          2.75585        0.87191       -0.97312
C          5.15017        0.85794       -1.68627
N         -0.21903        0.85161       -0.09359
C         -1.60197        0.79075        0.34668
C         -2.27249        2.14747        0.06513
C         -1.53498        3.26516        0.76049
O         -1.67850        3.59466        1.91061
O         -0.62633        3.84698       -0.05666
C         -2.39419       -0.32274       -0.32188
C         -2.20822       -0.62467       -1.66970
C         -2.97880       -1.60542       -2.28537
C         -3.94665       -2.29254       -1.55799
C         -4.13590       -1.99648       -0.21137
C         -3.36128       -1.01695        0.40224
C          0.77601       -3.07756        2.35075
H          5.95296        1.06893       -0.97315
H          5.51710        0.10717       -2.39297
H          4.89608        1.77048       -2.22703
H          0.10463        1.64502       -0.62972
H         -1.60976        0.61819        1.42966
H         -2.30701        2.32846       -1.01422
H         -3.29433        2.11602        0.44970
H         -0.15738        4.50767        0.48061
H         -1.44116       -0.09941       -2.23529
H         -2.82070       -1.83569       -3.33602
H         -4.54704       -3.06126       -2.03772
H         -4.88252       -2.53561        0.36633
H         -3.50047       -0.79728        1.45950
H          0.49104       -2.65137        3.31845
H         -0.11595       -3.54857        1.92753
H          1.55720       -3.82421        2.50190
