24
omegapdb_1gs5_08.log	Energy: -441845.3695870
C          0.99930       -0.42542        0.30820
C          2.19236       -1.30057       -0.03565
O          3.21699       -0.90272       -0.53949
O          1.98391       -2.57756        0.30263
C         -0.30705       -0.91155       -0.37176
C         -1.50106       -1.02849        0.59731
C         -2.79969       -0.60507       -0.07297
O         -3.68236       -1.36736       -0.37385
O         -2.88692        0.70753       -0.34459
N          1.37457        0.92798       -0.05087
C          0.57619        1.99205        0.16697
O         -0.54784        1.87966        0.65973
C          1.13294        3.34123       -0.22174
H          0.87160       -0.49296        1.39789
H          2.78548       -3.06937        0.05755
H         -0.14099       -1.88169       -0.84843
H         -0.53515       -0.20497       -1.17537
H         -1.62335       -2.05443        0.94993
H         -1.33783       -0.37786        1.46287
H         -2.11431        1.18444        0.02296
H          2.30130        1.03817       -0.44246
H          1.16339        3.97438        0.66913
H          0.44776        3.80938       -0.93332
H          2.13191        3.28944       -0.66211
