50
omegapdb_1xom_07.log	Energy: -710693.2241218
O         -5.94574       -1.47623        0.19519
C         -5.88258       -0.25834       -0.38314
O         -6.85664        0.28601       -0.84507
C         -4.47995        0.30430       -0.37530
C         -3.94854        0.47512        1.05631
C         -2.54123        1.07287        1.04112
C         -1.54442        0.21004        0.23654
C         -2.10772        0.00316       -1.19418
C         -3.52314       -0.57469       -1.19623
C         -1.45170       -1.11269        0.89534
N         -1.39549       -2.15451        1.39655
C         -0.13514        0.80732        0.16069
C          0.13801        2.13564        0.45420
C          1.43132        2.65055        0.32512
C          2.47620        1.83949       -0.09954
O          3.76002        2.24898       -0.26840
C          4.05025        3.60568       -0.00626
C          2.21379        0.48341       -0.38749
C          0.92677       -0.00556       -0.25821
O          3.19807       -0.34119       -0.84819
C          4.21217       -0.72028        0.10447
C          3.64226       -1.65486        1.17062
C          3.49421       -3.01696        0.46055
C          4.43934       -2.95963       -0.76890
C          5.17960       -1.61439       -0.65828
H         -6.87517       -1.75321        0.13960
H         -4.56058        1.28986       -0.84974
H         -3.94270       -0.49856        1.56088
H         -4.61400        1.13121        1.62931
H         -2.58513        2.06214        0.56893
H         -2.17023        1.21359        2.06243
H         -2.09594        0.98553       -1.68429
H         -1.43165       -0.64395       -1.76342
H         -3.51373       -1.58732       -0.77440
H         -3.88091       -0.65846       -2.22907
H         -0.64447        2.80642        0.79427
H          1.60471        3.69585        0.55829
H          3.47226        4.27064       -0.66052
H          3.84888        3.86363        1.04156
H          5.11414        3.73184       -0.21158
H          0.77001       -1.05882       -0.48230
H          4.67576        0.18428        0.51198
H          2.70437       -1.28476        1.59778
H          4.36815       -1.72000        1.99073
H          3.74563       -3.84205        1.13426
H          2.45835       -3.17565        0.14406
H          5.13416       -3.80474       -0.80034
H          3.85747       -2.98494       -1.69511
H          6.09670       -1.72066       -0.06588
H          5.44960       -1.18188       -1.62597
