39
omegacsd_GALSEM_15.log	Energy: -1046253.9533698
S          2.93533        0.67761        0.60107
O          4.22771        1.31003        0.43460
O          2.50974        0.19190        1.90507
N          2.77154       -0.60813       -0.49498
C          3.46990       -1.81567       -0.32672
O          4.03720       -2.09264        0.70080
C          3.40375       -2.72059       -1.54478
C          4.09262       -4.05495       -1.29512
C          1.68982        1.74271       -0.05221
C          0.30985        1.49951        0.15791
N         -0.11719        0.43010        0.89680
C         -1.44985        0.01506        1.09472
C         -2.35030       -0.09168        0.03514
C         -3.64543       -0.53757        0.27405
C         -4.05154       -0.90868        1.55141
C         -3.14139       -0.82813        2.59974
C         -1.85183       -0.36244        2.37834
C         -4.59227       -0.68754       -0.88599
F         -4.35217        0.22761       -1.84385
F         -5.87329       -0.55006       -0.50417
F         -4.47824       -1.89803       -1.46302
C         -0.55750        2.43967       -0.42660
C         -0.03118        3.50261       -1.13778
N          1.27367        3.73828       -1.32874
C          2.10251        2.86211       -0.77444
H          2.56206       -0.31004       -1.44136
H          3.86921       -2.19365       -2.38892
H          2.34884       -2.86247       -1.81284
H          3.62520       -4.58209       -0.45936
H          5.14543       -3.90593       -1.04255
H          4.03228       -4.68750       -2.18546
H          0.57816        0.02375        1.51571
H         -2.04208        0.16174       -0.97448
H         -5.06655       -1.25291        1.72169
H         -3.44246       -1.11611        3.60288
H         -1.14662       -0.28121        3.20201
H         -1.63027        2.35759       -0.29728
H         -0.71055        4.22932       -1.58041
H          3.16911        3.03957       -0.89853
