36
omegapdb_1qxw_01.log	Energy: -410438.5190754
C         -5.17021       -0.11503        0.44539
C         -4.49247        1.21541        0.26660
C         -4.03137        0.02453       -0.51819
N         -2.77235       -0.55898       -0.14506
C         -1.61373        0.06818       -0.77156
C         -0.36532       -0.45493       -0.06169
C          0.91217        0.31014       -0.44427
N          0.72359        1.70676       -0.06272
C          2.16215       -0.36629        0.14243
C          3.46545        0.35688       -0.19178
C          4.70534       -0.39771        0.28621
C          6.00451        0.34116       -0.02368
O         -0.52884       -0.33846        1.32625
O         -0.27197       -1.82614       -0.42374
H         -4.96735       -0.65879        1.36331
H         -6.17117       -0.24682        0.04501
H         -3.83691        1.55412        1.06399
H         -5.02463        2.00467       -0.25607
H         -4.28138        0.01727       -1.58311
H         -2.76188       -1.55185       -0.36394
H         -1.67062        1.14982       -0.62742
H         -1.53183       -0.13717       -1.85040
H          0.98562        0.27267       -1.54065
H          1.53256        2.25942       -0.32790
H          0.63594        1.75383        0.94962
H          2.04912       -0.43964        1.23359
H          2.22244       -1.39126       -0.24770
H          3.46458        1.35802        0.26246
H          3.53300        0.51025       -1.27989
H          4.62662       -0.57001        1.36846
H          4.72485       -1.39153       -0.18145
H          6.02325        1.32440        0.46121
H          6.87857       -0.21933        0.32448
H          6.11836        0.50168       -1.10237
H         -1.48929       -0.46219        1.45967
H          0.22895       -2.24942        0.28657
