45
omegacsd_SEYMIS_09.log	Energy: -753202.6465052
O         -1.25154        1.11885        2.56638
N         -2.28141        0.24489        2.30491
C         -2.54854        0.35818        1.02635
C         -1.67316        1.31463        0.41154
C         -1.61620        1.79542       -0.99836
O         -2.57574        2.28336       -1.57367
N         -0.39173        1.71601       -1.61577
C          0.67286        0.85189       -1.26290
C          0.57626       -0.50920       -1.04034
N          1.80434       -0.99358       -0.72593
C          2.05709       -2.39287       -0.41435
C          2.70901        0.04998       -0.76162
C          2.02480        1.20527       -1.08652
C          4.15214       -0.01465       -0.49896
O          4.87241        0.95857       -0.53759
O          4.58840       -1.25847       -0.21700
C          5.99549       -1.38234        0.06313
C          6.30385       -1.01014        1.50058
C         -0.88969        1.74303        1.43951
C          0.22755        2.71958        1.54195
C         -3.58078       -0.52021        0.43091
C         -3.78364       -1.79022        0.98281
C         -4.75230       -2.63600        0.45870
C         -5.52633       -2.22389       -0.62361
C         -5.32919       -0.96138       -1.17348
C         -4.36237       -0.10697       -0.65113
H         -0.40990        2.08220       -2.55983
H         -0.29253       -1.15512       -1.06560
H          2.46737       -2.49520        0.59157
H          2.76367       -2.82265       -1.12620
H          1.10645       -2.92580       -0.47548
H          2.47643        2.18351       -1.18562
H          6.54982       -0.75271       -0.63697
H          6.21890       -2.43293       -0.13734
H          7.36414       -1.18487        1.71094
H          5.71058       -1.61573        2.19281
H          6.08742        0.04711        1.67456
H          1.18050        2.19857        1.68201
H          0.06970        3.38738        2.39359
H          0.29313        3.31302        0.62764
H         -3.17636       -2.10114        1.82829
H         -4.90281       -3.62012        0.89516
H         -6.28340       -2.88665       -1.03554
H         -5.93579       -0.63183       -2.01311
H         -4.21512        0.88250       -1.07370
