50
omegapdb_1xom_15.log	Energy: -710686.9869412
O         -5.76997       -2.49355        0.39060
C         -5.48000       -1.35662       -0.28692
O         -6.36097       -0.72354       -0.80210
C         -4.00495       -0.97472       -0.32519
C         -3.78577        0.24588       -1.21899
C         -2.31193        0.64639       -1.26662
C         -1.71343        0.90656        0.13980
C         -1.97921       -0.32227        1.04659
C         -3.45601       -0.71672        1.09028
C         -2.43077        2.05513        0.73213
N         -3.01943        2.93496        1.19959
C         -0.21600        1.21462        0.05224
C          0.32541        2.43280        0.43908
C          1.69582        2.68044        0.33029
C          2.55268        1.70776       -0.16960
O          3.89288        1.85633       -0.32952
C          4.45506        3.10659        0.01197
C          2.01621        0.46163       -0.55385
C          0.65617        0.23570       -0.44270
O          2.81207       -0.50979       -1.09600
C          3.70455       -1.15400       -0.18616
C          4.63898       -2.07160       -0.97132
C          5.09957       -3.14091        0.04503
C          4.17988       -2.97507        1.28348
C          3.01916       -2.09760        0.80226
H         -4.95783       -2.89612        0.72753
H         -3.45836       -1.83230       -0.75231
H         -4.14956        0.03570       -2.22954
H         -4.39672        1.07414       -0.84090
H         -1.72209       -0.15343       -1.73244
H         -2.17560        1.54013       -1.88463
H         -1.60702       -0.11450        2.05561
H         -1.38876       -1.15953        0.65407
H         -4.04325        0.08192        1.56234
H         -3.56502       -1.60172        1.73045
H         -0.31642        3.21763        0.82993
H          2.07834        3.64898        0.63467
H          5.52180        3.02420       -0.20067
H          4.31252        3.33326        1.07632
H          4.02480        3.91538       -0.59183
H          0.29701       -0.73735       -0.76937
H          4.27854       -0.39198        0.35653
H          4.05204       -2.52294       -1.77964
H          5.46491       -1.52406       -1.43393
H          6.15130       -3.01078        0.31868
H          5.00994       -4.14424       -0.38310
H          4.71999       -2.46124        2.08781
H          3.84161       -3.93276        1.69049
H          2.49790       -1.57763        1.61291
H          2.28137       -2.69493        0.24925
