35
omegacsd_DIAVER_09.log	Energy: -548603.3909724
N         -3.81707        0.80338        1.00442
C         -4.06038        0.61193       -0.29624
N         -3.36752       -0.16183       -1.14245
C         -2.32068       -0.80966       -0.63313
C         -1.95039       -0.69696        0.72934
C         -2.76033        0.13531        1.47637
C         -0.78825       -1.45640        1.31435
C          0.56679       -1.09384        0.72659
C          0.91682        0.25269        0.55610
C          2.15342        0.60811        0.03118
C          3.07145       -0.40126       -0.32954
C          2.72106       -1.72868       -0.16507
C          1.47221       -2.07988        0.35454
O          4.27749       -0.08761       -0.89625
C          5.20848        0.50885       -0.00440
O          2.56290        1.88533       -0.18401
C          1.65360        2.92313        0.12063
N         -1.63752       -1.63394       -1.48434
N         -5.10914        1.30707       -0.83373
H         -2.55131        0.27331        2.53930
H         -0.94526       -2.53645        1.18760
H         -0.76883       -1.27673        2.39757
H          0.19185        1.01519        0.82524
H          3.44088       -2.48554       -0.46403
H          1.21450       -3.12976        0.47962
H          4.83528        1.46332        0.38064
H          5.42920       -0.16570        0.83367
H          6.12060        0.67852       -0.58034
H          1.40379        2.93703        1.18929
H          2.15896        3.85276       -0.14488
H          0.73041        2.82982       -0.46449
H         -1.86022       -1.50225       -2.46052
H         -0.66565       -1.82154       -1.28052
H         -5.77664        1.67416       -0.17407
H         -5.46465        0.96918       -1.71378
