36
omegapdb_1qxw_17.log	Energy: -410434.5388324
C          4.21092       -0.12208       -1.07150
C          4.67675       -0.70360        0.24027
C          3.28294       -0.96076       -0.22832
N          2.17817       -0.38361        0.48670
C          1.07358        0.04255       -0.35980
C         -0.03374        0.54556        0.57904
C         -1.31982        1.02161       -0.13306
N         -1.06045        2.36741       -0.66986
C         -1.88744        0.07027       -1.19467
C         -2.30860       -1.33009       -0.73316
C         -3.34550       -1.35509        0.39422
C         -4.63606       -0.60409        0.06949
O         -0.38518       -0.48479        1.45148
O          0.49424        1.62240        1.32720
H          4.02657        0.94947       -1.10374
H          4.60625       -0.53897       -1.99380
H          5.38960       -1.52276        0.22543
H          4.80741       -0.01888        1.07524
H          3.06738       -1.96298       -0.59613
H          2.47598        0.41923        1.03613
H          0.72394       -0.82352       -0.93459
H          1.35741        0.83325       -1.07725
H         -2.04690        1.14546        0.67888
H         -1.93107        2.87943       -0.77025
H         -0.65590        2.30103       -1.60133
H         -1.15311       -0.02604       -2.00861
H         -2.75507        0.57530       -1.64240
H         -1.42689       -1.89019       -0.40490
H         -2.71659       -1.85796       -1.60696
H         -2.89149       -0.95497        1.30804
H         -3.58693       -2.40377        0.61013
H         -5.07983       -0.96464       -0.86719
H         -5.37968       -0.73568        0.86269
H         -4.46650        0.47410       -0.03973
H          0.46020       -0.90772        1.68588
H          0.20048        2.41767        0.84214
