25
omegapdb_1m5f_05.log	Energy: -499678.1148058
O         -2.89327       -2.40012        0.24426
C         -1.70382       -1.84197       -0.00002
O         -0.70254       -2.49053       -0.16117
C         -1.71198       -0.34710       -0.05267
N         -2.82693        0.27995        0.21741
O         -2.55514        1.60592        0.09415
C         -1.26027        1.76877       -0.25423
C         -0.65195        0.55305       -0.37017
C          0.76515        0.25282       -0.75676
C          1.62521       -0.31085        0.38753
N          1.64742        0.59369        1.54088
C          3.04992       -0.46653       -0.16833
O          3.33131       -1.28672       -1.00353
O          3.92356        0.42147        0.31450
C         -0.80621        3.17245       -0.44798
H         -3.56300       -1.70040        0.34477
H          1.23172        1.17088       -1.13574
H          0.79216       -0.48289       -1.56526
H          1.25263       -1.31338        0.62495
H          1.77157        0.06878        2.40167
H          0.76535        1.09042        1.62866
H          3.41110        0.96300        0.95730
H         -1.29736        3.62116       -1.31708
H          0.27422        3.20287       -0.60581
H         -1.04942        3.78017        0.42860
