34
omegapdb_2f7p_21.log	Energy: -719056.8236440
C         -1.01329        0.22096       -0.93146
N          0.42468        0.09630       -0.98960
C          1.11617       -0.76918       -0.04247
C          2.59104       -0.42661        0.02647
C          3.01793        0.90182       -0.02360
C          4.36966        1.21183        0.07806
C          5.31321        0.19836        0.23027
C          4.89607       -1.12785        0.27636
C          3.54209       -1.43566        0.17131
C         -1.91712       -1.03348       -0.99710
O         -1.50482       -2.13731       -0.20425
C         -3.26086       -0.50853       -0.46325
O         -4.12184       -1.55044       -0.05836
C         -2.83234        0.36030        0.73802
O         -2.54600       -0.50802        1.83289
C         -1.50800        1.01366        0.31369
S         -1.64390        2.77082       -0.13602
H         -1.29333        0.80618       -1.81960
H          0.73542       -0.09895       -1.93405
H          0.67070       -0.60871        0.94928
H          0.99396       -1.83998       -0.25805
H          2.27541        1.68498       -0.15612
H          4.68950        2.25040        0.03711
H          6.36996        0.44159        0.30852
H          5.62591       -1.92617        0.38732
H          3.21951       -2.47539        0.20037
H         -1.98853       -1.42055       -2.01843
H         -1.48088       -1.81777        0.71652
H         -3.76553        0.11002       -1.21532
H         -3.56818       -2.34996       -0.06691
H         -3.59635        1.09149        1.02879
H         -3.33022       -1.07896        1.89815
H         -0.79561        0.92142        1.13737
H         -1.93828        3.23550        1.08844
