25
omegapdb_1m5f_09.log	Energy: -499680.1870279
O         -2.89975       -2.41281        0.31814
C         -1.71587       -1.85360        0.04254
O         -0.71021       -2.50153       -0.10271
C         -1.73456       -0.36455       -0.05711
N         -2.83954        0.27426        0.23882
O         -2.55131        1.59591        0.09849
C         -1.26426        1.74026       -0.28059
C         -0.68044        0.51657       -0.41264
C          0.72838        0.18471       -0.79046
C          1.62804        0.03982        0.45371
N          1.69168        1.29146        1.19155
C          3.01019       -0.43032        0.01609
O          4.01164        0.24556        0.07329
O          2.99780       -1.67670       -0.47950
C         -0.75637        3.12898       -0.43697
H         -3.56600       -1.70866        0.41365
H          0.74975       -0.74991       -1.35688
H          1.13660        0.98068       -1.42698
H          1.19138       -0.74550        1.08099
H          2.47655        1.82776        0.82511
H          1.92448        1.10540        2.16239
H          3.90840       -1.87567       -0.75428
H         -0.28543        3.26038       -1.41637
H         -1.57389        3.84696       -0.34136
H         -0.00297        3.32382        0.33219
