57
omegacsd_SPIRIL_14.log	Energy: -797193.7496308
C         -2.42254       -0.23954        1.41541
C         -2.59822        0.46745        0.05052
C         -1.85545        1.81407        0.11966
O         -0.65024        1.98405        0.07962
N         -2.78582        2.78633        0.25857
C         -4.14353        2.32136        0.16832
N         -3.97975        0.92287       -0.18502
C         -5.11915        0.11851       -0.19872
C         -5.05335       -1.27397       -0.37159
C         -6.20819       -2.04331       -0.41368
C         -7.46602       -1.46200       -0.29093
C         -7.54334       -0.08508       -0.12536
C         -6.39514        0.69780       -0.07732
C         -1.99165       -0.39357       -1.09030
C         -1.47656       -1.75951       -0.60562
N         -0.62420       -1.72230        0.57208
C          0.80617       -1.79108        0.33563
C          1.40348       -0.66664       -0.53663
C          2.90259       -0.66391       -0.47788
C          3.71018        0.36734       -0.19314
C          5.18680        0.15829       -0.12895
C          6.07806        1.13897       -0.58098
C          7.45426        0.94587       -0.53878
C          7.94410       -0.24324       -0.02509
C          7.09989       -1.23357        0.44983
C          5.72771       -1.02089        0.39845
F          9.27596       -0.43684        0.02522
C          3.22544        1.77658        0.05240
C         -0.99919       -0.75916        1.60483
H         -3.13976       -1.06508        1.48307
H         -2.66868        0.45946        2.22423
H         -2.52560        3.75937        0.29489
H         -4.70012        2.86314       -0.60950
H         -4.67694        2.45116        1.12566
H         -4.09627       -1.76618       -0.47980
H         -6.11461       -3.11835       -0.54725
H         -8.36558       -2.06958       -0.32484
H         -8.51198        0.39929       -0.02760
H         -6.50948        1.76899        0.05212
H         -2.73798       -0.52935       -1.88055
H         -1.15457        0.16059       -1.52701
H         -0.91616       -2.23533       -1.41840
H         -2.32500       -2.43061       -0.40666
H          1.04347       -2.76582       -0.11433
H          1.29756       -1.78113        1.31731
H          0.98257        0.29419       -0.22922
H          1.08346       -0.82381       -1.57819
H          3.37246       -1.62644       -0.69236
H          5.69398        2.07057       -0.98805
H          8.14711        1.70064       -0.89765
H          7.52063       -2.14433        0.86457
H          5.05804       -1.77883        0.79648
H          2.14329        1.83421        0.18932
H          3.47606        2.42969       -0.79335
H          3.70949        2.20241        0.93881
H         -0.31553        0.10293        1.61176
H         -0.92138       -1.23550        2.59298
