34
omegapdb_2f7p_20.log	Energy: -719056.4318396
C         -0.47603        0.27243        0.24949
N          0.19368        0.79216        1.42319
C          1.45316        0.13996        1.76025
C          2.50352        0.07635        0.66048
C          3.14266       -1.12531        0.35642
C          4.11751       -1.18740       -0.63670
C          4.46087       -0.04269       -1.34771
C          3.82486        1.16259       -1.05853
C          2.85622        1.21863       -0.06271
C         -0.67087       -1.25272        0.23214
O         -1.13175       -1.69007        1.48443
C         -1.78151       -1.46168       -0.84779
O         -2.67774       -2.46216       -0.41699
C         -2.47831       -0.07769       -0.99986
O         -3.87749       -0.26188       -0.96537
C         -1.92251        0.75149        0.15651
S         -2.18897        2.52918       -0.11393
H          0.04610        0.53587       -0.69145
H          0.33992        1.78957        1.29208
H          1.21995       -0.87464        2.10268
H          1.86553        0.67286        2.62605
H          2.87347       -2.02530        0.90764
H          4.60567       -2.13367       -0.85677
H          5.21906       -0.08752       -2.12530
H          4.08628        2.06251       -1.61002
H          2.36588        2.16726        0.15365
H          0.25648       -1.77573       -0.04448
H         -1.81330       -2.35407        1.27761
H         -1.33543       -1.76929       -1.80039
H         -3.56366       -2.06171       -0.43899
H         -2.18163        0.37581       -1.95748
H         -4.28936        0.60096       -0.81805
H         -2.42758        0.45231        1.07932
H         -2.28124        2.88201        1.17587
