66
omegapdb_1z1r_07.log	Energy: -1302687.4256863
C          0.49754       -0.07428        1.71587
C          0.82156       -1.51162        1.26105
C         -0.42850       -2.18642        0.74340
C         -0.56974       -2.48139       -0.61291
C         -1.80574       -2.83474       -1.14871
C         -2.92888       -2.88685       -0.32647
C         -2.78393       -2.69491        1.04992
C         -1.54532       -2.34477        1.56887
O         -4.13837       -3.14042       -0.91086
C         -5.21194       -2.24579       -0.60005
C         -5.20629       -0.99555       -1.47678
C         -4.11029        0.03067       -1.17538
C         -4.34400        0.76624        0.13846
O         -5.29863        0.52402        0.85856
N         -3.46822        1.77404        0.46822
C         -2.14762        2.01650       -0.08311
C         -1.11754        1.62664        0.98424
O         -1.06154        2.26588        2.03917
N         -0.35987        0.55857        0.72039
C         -1.95923        3.48389       -0.46269
C         -0.62286        3.68859       -1.16067
O          0.10927        2.74532       -1.44293
N         -0.30276        4.96621       -1.46295
C          1.73375        0.77867        2.09174
O          1.48321        1.53413        3.25825
C          2.19965        1.74388        0.99214
N          2.33020        1.15194       -0.34156
S          3.83303        0.79000       -0.94922
O          4.86230        1.46683       -0.17350
O          3.72586        0.96060       -2.39043
C          3.99756       -0.95079       -0.61846
C          4.58303       -1.36907        0.57139
C          4.62762       -2.73045        0.85932
C          4.09812       -3.65176       -0.04008
C          3.53323       -3.21994       -1.23916
C          3.48099       -1.86225       -1.53511
H         -0.09464       -0.13874        2.63721
H          1.58642       -1.49262        0.47742
H          1.25209       -2.04358        2.11785
H          0.29476       -2.39215       -1.27025
H         -1.92914       -3.02313       -2.21159
H         -3.64317       -2.78928        1.70766
H         -1.45670       -2.14890        2.63630
H         -5.20641       -1.96870        0.45820
H         -6.12093       -2.82100       -0.79592
H         -6.18119       -0.50894       -1.36206
H         -5.11614       -1.31442       -2.52175
H         -4.07347        0.77470       -1.98243
H         -3.12486       -0.44940       -1.15991
H         -3.62840        2.15179        1.39554
H         -2.01663        1.40453       -0.97659
H         -0.38719        0.16305       -0.20812
H         -2.77519        3.80416       -1.12092
H         -2.00073        4.09805        0.44510
H         -0.87483        5.74606       -1.18179
H          0.58638        5.14778       -1.90459
H          2.55160        0.09266        2.34936
H          0.63082        1.98246        3.10556
H          3.14262        2.20029        1.30832
H          1.46121        2.54766        0.91373
H          1.77766        1.62872       -1.05387
H          5.00500       -0.63401        1.25133
H          5.08270       -3.07149        1.78513
H          4.13494       -4.71367        0.18813
H          3.13843       -3.94371       -1.94714
H          3.05721       -1.50138       -2.46826
