44
omegacsd_CUHNEY10_06.log	Energy: -1049279.0998696
Cl         3.96059        3.11605       -0.55804
C          2.31453        2.59728       -0.39250
C          1.88655        1.43149       -1.00947
N          0.64048        0.97722       -0.89774
C         -0.23047        1.67340       -0.17010
N         -1.51082        1.09924       -0.08745
C         -2.63564        1.67001        0.50946
O         -2.71247        2.75241        1.04302
C         -3.72168        0.65617        0.32620
N         -4.98365        0.76147        0.72313
C         -5.71819       -0.31127        0.42774
C         -5.19645       -1.43331       -0.23139
N         -3.92396       -1.52204       -0.62400
C         -3.20836       -0.44534       -0.33030
C         -1.74724       -0.24001       -0.63440
O         -0.94908       -1.17732        0.04874
C         -0.11243       -1.92357       -0.74605
O         -0.31219       -2.11388       -1.92628
N          0.91001       -2.42206       -0.00790
C          1.23345       -1.87651        1.31456
C          2.53258       -2.51825        1.79949
N          3.66135       -2.33229        0.89378
C          3.29110       -2.43483       -0.51886
C          1.96414       -3.15957       -0.69844
C          4.43161       -1.13197        1.14917
C          0.10106        2.87204        0.47681
C          1.40166        3.33164        0.35777
H          2.57046        0.84221       -1.61729
H         -6.76420       -0.28906        0.72436
H         -5.83597       -2.28632       -0.44650
H         -1.52249       -0.28797       -1.70269
H          0.42057       -2.08448        2.01781
H          1.34623       -0.78560        1.25097
H          2.79523       -2.10017        2.77619
H          2.36297       -3.59150        1.95597
H          3.17833       -1.43122       -0.96927
H          4.08392       -2.95125       -1.07649
H          1.69399       -3.21158       -1.75375
H          2.02665       -4.18416       -0.31214
H          4.78003       -1.12200        2.18698
H          3.87207       -0.19452        0.95767
H          5.31557       -1.12450        0.50176
H         -0.64271        3.41228        1.04664
H          1.70819        4.25213        0.84568
