45
omegacsd_FABSOQ10_06.log	Energy: -924263.9723559
S         -0.00001       -2.41026        0.83793
C         -1.24938       -1.51326        0.04437
C         -0.71301       -0.57170       -0.78423
C          0.71297       -0.57171       -0.78425
C          1.24935       -1.51324        0.04437
C          2.70449       -1.86632        0.26027
O          3.16203       -2.77965       -0.72579
C          3.58832       -0.63491        0.22236
C          4.49927       -0.42319       -0.80156
C          5.30343        0.71926       -0.82672
C          5.19183        1.66357        0.18970
O          5.92203        2.80877        0.26857
C          6.86249        3.05397       -0.75346
C          4.27365        1.45801        1.22721
C          3.48609        0.32278        1.23821
C         -2.70451       -1.86634        0.26028
O         -3.16206       -2.77969       -0.72577
C         -3.58834       -0.63493        0.22237
C         -3.48621        0.32268        1.23830
C         -4.27375        1.45792        1.22730
C         -5.19182        1.66357        0.18970
O         -5.92201        2.80878        0.26857
C         -6.86238        3.05404       -0.75352
C         -5.30332        0.71934       -0.82680
C         -4.49918       -0.42313       -0.80163
H         -1.32598        0.11074       -1.36420
H          1.32593        0.11072       -1.36425
H          2.80103       -2.32675        1.25787
H          2.48467       -3.45945       -0.82878
H          4.59110       -1.16534       -1.58790
H          6.00889        0.85046       -1.64066
H          6.37801        3.13332       -1.73550
H          7.33581        4.00608       -0.50810
H          7.62825        2.26833       -0.79263
H          4.20225        2.20628        2.01100
H          2.77133        0.17623        2.04662
H         -2.80105       -2.32677        1.25788
H         -2.48455       -3.45931       -0.82899
H         -2.77155        0.17605        2.04678
H         -4.20244        2.20613        2.01115
H         -6.37783        3.13346       -1.73552
H         -7.33573        4.00612       -0.50813
H         -7.62814        2.26839       -0.79281
H         -6.00869        0.85060       -1.64081
H         -4.59093       -1.16522       -1.58803
