66
omegapdb_1z1r_08.log	Energy: -1302682.3658578
C          0.07769       -1.06331        1.54165
C          0.03343       -2.46348        0.89225
C         -1.35190       -2.80018        0.38805
C         -1.64215       -2.78982       -0.97855
C         -2.95355       -2.88461       -1.43938
C         -3.99924       -2.97110       -0.52342
C         -3.71947       -3.06775        0.83999
C         -2.40814       -2.98136        1.28629
O         -5.30737       -2.96005       -0.92184
C         -5.76573       -1.74297       -1.52557
C         -5.76419       -0.54167       -0.57747
C         -4.43894        0.21921       -0.51228
C         -4.41563        1.22678        0.62541
O         -5.36315        1.40346        1.37069
N         -3.25628        1.94700        0.79406
C         -1.99953        1.79609        0.08899
C         -0.98943        1.12125        1.01731
O         -0.59740        1.69358        2.03368
N         -0.59743       -0.11672        0.65013
C         -1.47973        3.14709       -0.39070
C         -2.38020        3.67472       -1.50159
O         -2.99103        2.92668       -2.24935
N         -2.42611        5.02433       -1.62094
C          1.51129       -0.64316        1.92656
O          1.53190        0.24101        3.02454
C          2.29594       -0.04798        0.75587
N          3.61616        0.31237        1.26322
S          4.61541        1.17332        0.25053
O          5.55821        1.85497        1.12219
O          3.83395        1.91080       -0.73543
C          5.46818       -0.11968       -0.62196
C          6.41234       -0.88144        0.06253
C          7.08527       -1.88728       -0.61755
C          6.81414       -2.12094       -1.96575
C          5.87357       -1.34866       -2.63897
C          5.19311       -0.33623       -1.96624
H         -0.48475       -1.09746        2.48489
H          0.36728       -3.18728        1.64399
H          0.75267       -2.50893        0.06408
H         -0.83088       -2.68886       -1.69862
H         -3.16933       -2.85570       -2.50413
H         -4.54723       -3.16632        1.53625
H         -2.20624       -3.01328        2.35569
H         -5.18292       -1.53033       -2.43396
H         -6.78766       -1.97650       -1.83354
H         -6.05046       -0.88067        0.42366
H         -6.55072        0.15323       -0.89241
H         -3.60495       -0.47558       -0.36184
H         -4.24046        0.74764       -1.45482
H         -3.24339        2.51019        1.63567
H         -2.17922        1.18963       -0.80011
H         -1.06490       -0.52055       -0.15065
H         -1.40652        3.84393        0.45155
H         -0.46681        3.03353       -0.79963
H         -1.92523        5.64067       -1.00239
H         -2.97729        5.42183       -2.36622
H          2.03647       -1.54441        2.26770
H          0.84452        0.91775        2.85642
H          1.77121        0.82453        0.34780
H          2.41130       -0.78275       -0.05131
H          3.54679        0.78753        2.16309
H          6.61479       -0.67736        1.11002
H          7.82643       -2.48854       -0.09828
H          7.34519       -2.90862       -2.49405
H          5.67223       -1.52775       -3.69158
H          4.46568        0.29370       -2.46956
