40
omegapdb_2byh_15.log	Energy: -1016182.9810229
O         -7.31291        0.40159       -0.36506
C         -6.26885        0.52182       -0.97600
C         -6.26246        0.70830       -2.47825
C         -4.95736        0.48700       -0.25083
C         -3.72776        0.63262       -0.89639
C         -2.53914        0.60560       -0.17943
C         -2.56367        0.39862        1.20187
C         -3.79196        0.25352        1.85454
C         -4.97400        0.30601        1.13427
N         -1.38366        0.38311        1.97704
C         -0.10763       -0.04261        1.65720
O          0.84481        0.37520        2.29483
C          0.04147       -1.06808        0.59951
C         -0.87196       -2.06986        0.18192
N         -0.33365       -2.89858       -0.69137
N          0.92318       -2.44625       -0.84245
C          1.21320       -1.35181       -0.09411
C          2.53612       -0.70949       -0.16365
C          2.65436        0.68034       -0.19121
C          3.88902        1.28426       -0.33023
Cl         4.02113        3.02235       -0.38172
C          5.05592        0.51421       -0.44132
O          6.28196        1.05249       -0.58690
C          4.95210       -0.87117       -0.38844
C          3.71183       -1.47627       -0.24189
O          3.69749       -2.84101       -0.20345
H         -7.29375        0.70972       -2.83392
H         -5.78185        1.65415       -2.75208
H         -5.70891       -0.09969       -2.96951
H         -3.68476        0.78878       -1.97103
H         -1.59108        0.74784       -0.68851
H         -3.80714        0.08961        2.92938
H         -5.93530        0.19457        1.62713
H         -1.39003        0.93788        2.82364
H         -1.89449       -2.21952        0.50406
H          1.52311       -2.87630       -1.53215
H          1.76797        1.30000       -0.10666
H          6.20734        2.01888       -0.58299
H          5.84800       -1.47962       -0.44282
H          2.91436       -3.13855        0.28143
