50
omegapdb_1xom_17.log	Energy: -710687.5264739
O         -6.66492       -0.04765        1.20007
C         -5.94989       -0.25039        0.06729
O         -6.44895       -0.82287       -0.86302
C         -4.52328        0.28616        0.08682
C         -3.68574       -0.38202        1.19294
C         -2.25369        0.15437        1.19979
C         -1.54787       -0.00373       -0.17130
C         -2.42703        0.63309       -1.27844
C         -3.85960        0.10139       -1.27780
C         -1.44710       -1.45186       -0.44914
N         -1.40307       -2.58979       -0.65461
C         -0.15159        0.62697       -0.14544
C         -0.01020        1.98149        0.14067
C          1.24373        2.58946        0.16597
C          2.39146        1.84803       -0.09982
O          3.65333        2.35000       -0.11851
C          3.81121        3.73286        0.11881
C          2.26318        0.47523       -0.38313
C          1.00660       -0.11169       -0.40327
O          3.35296       -0.27892       -0.70682
C          4.27430       -0.56515        0.36377
C          5.40937       -1.35917       -0.26701
C          4.81559       -2.76490       -0.46592
C          3.74048       -2.92269        0.64203
C          3.66649       -1.55594        1.35597
H         -6.13525        0.44042        1.84528
H         -4.58579        1.36462        0.31012
H         -4.12753       -0.21979        2.18470
H         -3.67826       -1.46783        1.03022
H         -2.26459        1.22334        1.44664
H         -1.65969       -0.34597        1.97217
H         -2.43167        1.71768       -1.11026
H         -1.95408        0.46641       -2.25205
H         -3.87399       -0.96418       -1.53593
H         -4.44774        0.60957       -2.04821
H         -0.88267        2.59764        0.34613
H          1.30993        3.64990        0.38535
H          3.46937        4.01011        1.12450
H          4.88024        3.93213        0.03292
H          3.26969        4.33025       -0.62560
H          0.95991       -1.17204       -0.63776
H          4.59684        0.37646        0.82040
H          5.76008       -0.89581       -1.19358
H          6.24841       -1.38610        0.43923
H          5.58356       -3.54302       -0.41584
H          4.35061       -2.83218       -1.45383
H          2.77231       -3.18190        0.20199
H          3.99088       -3.72233        1.34622
H          4.28263       -1.55527        2.26390
H          2.65045       -1.27714        1.65500
