57
omegacsd_SPIRIL_09.log	Energy: -797193.7786092
C         -0.76670        0.19924       -0.67714
C         -1.56964       -0.05383        0.62783
C         -0.68683       -0.75914        1.66861
O          0.41237       -0.40476        2.05169
N         -1.36716       -1.84162        2.11603
C         -2.64788       -2.04366        1.49450
N         -2.65932       -1.02669        0.46218
C         -3.81433       -0.85174       -0.29333
C         -3.95156        0.17861       -1.24167
C         -5.11150        0.30088       -1.99530
C         -6.17064       -0.58792       -1.84173
C         -6.04407       -1.61022       -0.90972
C         -4.89133       -1.74492       -0.14506
C         -2.06218        1.27440        1.24494
C         -0.97170        2.34950        1.35512
N         -0.01580        2.28960        0.25832
C          0.70610        3.53254        0.10280
C          1.91679        3.46146       -0.85593
C          2.63741        2.13390       -0.94769
C          3.08852        1.38104        0.06203
C          3.71189        0.05689       -0.22157
C          3.35124       -1.06637        0.53466
C          3.90595       -2.31370        0.27158
C          4.83504       -2.43117       -0.74996
C          5.22296       -1.34322       -1.51364
C          4.65682       -0.10235       -1.23982
F          5.37975       -3.63791       -1.00439
C          2.95477        1.76294        1.51485
C         -0.54896        1.68898       -0.94473
H          0.22573       -0.25268       -0.57409
H         -1.26842       -0.28773       -1.51882
H         -0.98487       -2.44558        2.82651
H         -2.72960       -3.05100        1.06089
H         -3.47088       -1.91521        2.21872
H         -3.15109        0.89094       -1.40192
H         -5.18043        1.10992       -2.71865
H         -7.07400       -0.48491       -2.43564
H         -6.85367       -2.32201       -0.76664
H         -4.84011       -2.55917        0.57042
H         -2.48885        1.08021        2.23639
H         -2.88576        1.64547        0.62777
H         -1.47912        3.33287        1.39244
H         -0.42095        2.23631        2.29769
H          0.04421        4.35716       -0.23431
H          1.04886        3.81502        1.10533
H          2.61470        4.25670       -0.55743
H          1.58725        3.73244       -1.86569
H          2.75861        1.73906       -1.95712
H          2.60413       -0.96691        1.31967
H          3.62670       -3.19335        0.84360
H          5.96345       -1.47302       -2.29692
H          4.96658        0.76616       -1.81609
H          2.93326        2.84956        1.64260
H          3.79451        1.37188        2.09878
H          2.02696        1.34620        1.92493
H          0.18510        1.79022       -1.74910
H         -1.47405        2.18875       -1.30068
