61
omegapdb_1v2k_14.log	Energy: -1425428.8354590
N          7.24029        4.42784        0.55764
C          7.19006        3.82835       -0.63386
C          6.48619        2.66719       -0.91194
C          5.75578        2.03782        0.11458
C          5.79916        2.66846        1.37237
C          6.54318        3.82847        1.52516
N          5.04878        0.87938       -0.12262
C          4.38699        0.16404        0.95563
C          4.33621       -1.34513        0.69193
C          3.87896       -1.70774       -0.74394
C          3.53932       -0.44860       -1.55290
C          4.70935        0.52792       -1.49905
C          2.81579       -2.80350       -0.87554
O          3.03078       -3.73971       -1.63347
N          1.65584       -2.73722       -0.14289
C          1.13245       -1.58113        0.56886
C         -0.12044       -1.04985       -0.13675
N         -1.12248       -2.09519       -0.37015
C         -0.56268       -3.29011       -1.02242
C          0.67511       -3.80698       -0.29389
S         -2.18001       -2.37209        0.89583
O         -2.92350       -3.57281        0.54999
O         -1.49951       -2.28843        2.18565
C         -3.24255       -0.94858        0.78836
C         -3.80852       -0.60889       -0.41201
C         -4.70723        0.48373       -0.48222
C         -5.01290        1.20425        0.70224
C         -4.40738        0.81531        1.92718
C         -3.53779       -0.24007        1.97685
C         -5.91500        2.29952        0.63371
C         -6.47472        2.64366       -0.56435
C         -6.17862        1.93350       -1.75468
C         -5.31278        0.87783       -1.70727
Cl        -7.57891        3.98164       -0.65420
H          7.75801        4.30691       -1.43137
H          6.53289        2.24813       -1.91099
H          5.24418        2.28918        2.22291
H          6.57005        4.31405        2.50038
H          4.95487        0.32074        1.87543
H          3.37765        0.57060        1.14125
H          3.69724       -1.81155        1.45008
H          5.34023       -1.75139        0.84954
H          4.72636       -2.16927       -1.25931
H          3.35218       -0.71969       -2.59757
H          2.63268        0.04623       -1.18338
H          4.45165        1.44024       -2.05291
H          5.57548        0.07506       -2.00655
H          1.87748       -0.78885        0.62179
H          0.87235       -1.87404        1.59334
H          0.15109       -0.64701       -1.12128
H         -0.57213       -0.23713        0.44121
H         -1.34155       -4.05260       -1.07635
H         -0.29337       -2.99477       -2.04372
H          0.39574       -4.17340        0.70304
H          1.14462       -4.61603       -0.85365
H         -3.56393       -1.16693       -1.31257
H         -4.64465        1.37124        2.83095
H         -3.06431       -0.54545        2.90453
H         -6.15611        2.85655        1.53463
H         -6.64546        2.23850       -2.68580
H         -5.07858        0.32337       -2.61290
