66
omegapdb_1z1r_09.log	Energy: -1302685.7189045
C         -0.27718       -1.53853        1.13428
C         -1.20741       -2.69512        0.70516
C         -2.66640       -2.30467        0.64707
C         -3.26308       -1.55314        1.66070
C         -4.55167       -1.05029        1.52680
C         -5.26895       -1.29886        0.35683
C         -4.72746       -2.13088       -0.62025
C         -3.43281       -2.61342       -0.47696
O         -6.49490       -0.74044        0.11582
C         -6.56792        0.68330        0.24074
C         -5.97436        1.42788       -0.95407
C         -4.45182        1.37953       -1.12465
C         -3.70247        2.06757        0.00808
O         -4.28104        2.64162        0.91918
N         -2.33428        2.05965       -0.04419
C         -1.48286        1.42007       -1.02330
C         -1.04544       -0.01760       -0.68573
O         -0.99233       -0.86148       -1.57207
N         -0.65065       -0.23617        0.59145
C         -0.22371        2.25919       -1.30748
C          0.62406        2.54390       -0.07333
O          0.12457        2.79073        1.02276
N          1.95967        2.57742       -0.27696
C          1.20447       -1.88424        0.90529
O          1.95656       -1.12351        1.83449
C          1.69737       -1.59387       -0.51372
N          3.15281       -1.79587       -0.58755
S          4.11948       -0.66921       -1.35432
O          4.98119       -1.39909       -2.26811
O          3.26792        0.41709       -1.83131
C          5.14117       -0.00680       -0.05853
C          6.52049       -0.08637       -0.19786
C          7.32981        0.47109        0.78955
C          6.75652        1.09209        1.89345
C          5.36907        1.16213        2.02120
C          4.55020        0.61710        1.04048
H         -0.36443       -1.42339        2.21973
H         -0.90797       -3.07053       -0.27743
H         -1.04728       -3.50978        1.42461
H         -2.70388       -1.31814        2.56514
H         -4.98150       -0.43548        2.31208
H         -5.30802       -2.32873       -1.51693
H         -2.98701       -3.19194       -1.28304
H         -7.63853        0.89818        0.30066
H         -6.09855        1.02610        1.16688
H         -6.27573        2.47711       -0.85394
H         -6.44054        1.03885       -1.86739
H         -4.19248        1.89522       -2.06029
H         -4.08875        0.35236       -1.24032
H         -1.86506        2.57298        0.69538
H         -2.02026        1.31584       -1.96895
H         -0.71977        0.53749        1.23845
H         -0.53200        3.23124       -1.71100
H          0.36932        1.75544       -2.07919
H          2.40117        2.11612       -1.06403
H          2.53373        2.76588        0.53252
H          1.32814       -2.95872        1.12338
H          2.88351       -1.36502        1.69003
H          1.17458       -2.19495       -1.26239
H          1.50216       -0.54655       -0.74457
H          3.44442       -2.71737       -0.89756
H          6.94349       -0.57846       -1.06828
H          8.41037        0.41617        0.69268
H          7.39174        1.52235        2.66300
H          4.92400        1.63990        2.88963
H          3.46713        0.65013        1.14243
