50
omegapdb_1xom_12.log	Energy: -710687.9231163
O          6.66268       -0.63565       -0.83545
C          5.85571        0.03034        0.01526
O          6.15970        0.23108        1.16741
C          4.56475        0.44657       -0.65656
C          3.81896       -0.81186       -1.17294
C          2.31587       -0.55453       -1.21008
C          1.73696       -0.37712        0.22706
C          2.76775        0.38337        1.11705
C          3.68826        1.28148        0.29110
C          1.56307       -1.72620        0.80631
N          1.45183       -2.79450        1.23785
C          0.36552        0.30110        0.13300
C          0.19901        1.66481        0.33750
C         -1.04747        2.27224        0.17208
C         -2.15652        1.51885       -0.19709
O         -3.41061        2.01051       -0.36204
C         -3.60523        3.38854       -0.12828
C         -1.99767        0.13648       -0.41661
C         -0.75215       -0.44724       -0.25587
O         -3.07461       -0.59466       -0.82947
C         -3.59745       -1.53588        0.12361
C         -4.71199       -2.29129       -0.58820
C         -5.91201       -1.32299       -0.56472
C         -5.65106       -0.35424        0.61957
C         -4.32944       -0.82016        1.25753
H          7.44808       -0.88729       -0.32183
H          4.84966        1.05623       -1.52349
H          4.19415       -1.08834       -2.16219
H          4.01637       -1.67179       -0.51892
H          1.78731       -1.36843       -1.71701
H          2.10207        0.36018       -1.77530
H          2.23860        0.95022        1.88852
H          3.39407       -0.34047        1.64968
H          4.32777        1.86260        0.96121
H          3.09919        1.99461       -0.29729
H          1.03654        2.28984        0.63380
H         -1.13870        3.33882        0.34838
H         -3.00768        4.00118       -0.81563
H         -4.66512        3.57654       -0.30624
H         -3.35697        3.65948        0.90637
H         -0.66293       -1.51713       -0.43372
H         -2.78440       -2.18535        0.47452
H         -4.93324       -3.20135       -0.01774
H         -4.41248       -2.59089       -1.59666
H         -6.85853       -1.86242       -0.45791
H         -5.96348       -0.76579       -1.50470
H         -5.53541        0.66832        0.25031
H         -6.47050       -0.35407        1.34537
H         -4.51216       -1.54635        2.05971
H         -3.74163       -0.00057        1.68408
