24
omegapdb_1gs5_18.log	Energy: -441840.4601186
C          0.40989        0.50985        0.03230
C          0.39906        2.02171       -0.08291
O          1.36266        2.74384       -0.03345
O         -0.85508        2.48697       -0.25495
C         -0.49679        0.02082        1.19928
C         -1.39874       -1.15927        0.83590
C         -2.58265       -0.91823       -0.09482
O         -3.32759       -1.81189       -0.39860
O         -2.78901        0.32142       -0.58995
N          1.79124        0.10590        0.15347
C          2.18590       -1.15439       -0.18594
O          1.38117       -2.02732       -0.47297
C          3.67985       -1.39417       -0.19177
H          0.00744        0.11270       -0.91166
H         -0.80822        3.45416       -0.33685
H          0.17067       -0.28503        2.01029
H         -1.09511        0.84963        1.59836
H         -1.82443       -1.59458        1.74631
H         -0.79442       -1.94337        0.36822
H         -2.16680        0.98114       -0.24962
H          2.46800        0.85049        0.25292
H          4.24839       -0.59471        0.29135
H          3.88336       -2.34143        0.31209
H          4.01598       -1.49238       -1.22853
