25
omegapdb_1m5f_10.log	Energy: -499680.1820128
O         -2.93927       -2.38091        0.31942
C         -1.74693       -1.84191        0.03992
O         -0.75318       -2.50699       -0.10908
C         -1.74083       -0.35252       -0.05881
N         -2.83447        0.30374        0.23931
O         -2.52601        1.62101        0.09868
C         -1.23731        1.74459       -0.28345
C         -0.67341        0.51212       -0.41753
C          0.73030        0.15754       -0.79143
C          1.62943        0.02754        0.45513
N          1.68987        1.28715        1.17798
C          3.01134       -0.44698        0.02150
O          4.01103        0.23255        0.06201
O          3.00039       -1.70253       -0.45104
C         -0.71107        3.12613       -0.43301
H         -3.59325       -1.66568        0.41725
H          0.74189       -0.78741       -1.34040
H          1.14674        0.93690       -1.44334
H          1.19255       -0.74992        1.09203
H          2.45635        1.83333        0.78815
H          1.94928        1.11442        2.14460
H          3.91026       -1.90387       -0.72651
H          0.04334        3.15817       -1.22390
H         -0.23095        3.44231        0.49795
H         -1.51677        3.82149       -0.68066
