41
omegacsd_CEJTIU_16.log	Energy: -611026.0567141
C         -4.51604       -2.52915       -0.90163
N         -4.01832       -1.71040        0.18269
C         -4.77414       -1.66838        1.41634
C         -3.15038       -0.67090       -0.10769
C         -2.56704       -0.53618       -1.38251
C         -1.66071        0.47930       -1.64924
C         -1.32288        1.41732       -0.67781
C         -1.92291        1.32102        0.57535
C         -2.80857        0.29186        0.86141
N         -0.40048        2.45423       -1.01041
C          0.47991        3.09599       -0.17246
O          0.80091        4.25635       -0.34008
N          0.98975        2.37270        0.91966
C          1.46299        1.06929        1.08771
O          1.92767        0.76479        2.16568
C          1.40465        0.10097       -0.08497
C          2.59984       -0.82355       -0.13042
C          2.79584       -1.79513        0.85354
C          3.88881       -2.65111        0.79071
C          4.80193       -2.54907       -0.25642
C          4.61522       -1.58395       -1.23940
C          3.51903       -0.72740       -1.17399
H         -5.06713       -1.94717       -1.65696
H         -3.69550       -3.05315       -1.40553
H         -5.18827       -3.28834       -0.49705
H         -5.42092       -0.78013        1.48991
H         -5.40415       -2.55782        1.47940
H         -4.10613       -1.67796        2.28541
H         -2.80679       -1.23675       -2.17448
H         -1.19980        0.54208       -2.63264
H         -1.69174        2.05247        1.34456
H         -3.24711        0.25345        1.85210
H         -0.67101        3.06736       -1.76865
H          1.33318        2.98879        1.64684
H          1.30882        0.64557       -1.02767
H          0.48086       -0.47964        0.03356
H          2.09261       -1.86736        1.67824
H          4.02936       -3.40239        1.56393
H          5.65528       -3.22093       -0.30430
H          5.32289       -1.49495       -2.05993
H          3.37684        0.02657       -1.94638
