66
omegapdb_1z1r_19.log	Energy: -1302676.4787209
C          0.17574        0.05626        0.00939
C          0.41666       -1.40186       -0.42870
C         -0.83049       -2.23574       -0.25795
C         -1.60054       -2.60797       -1.36226
C         -2.85145       -3.19954       -1.20410
C         -3.35268       -3.40987        0.07715
C         -2.55894       -3.13027        1.18901
C         -1.31116       -2.54707        1.01792
O         -4.62553       -3.86935        0.28307
C         -5.66123       -2.98740       -0.15954
C         -5.70098       -1.64155        0.56427
C         -4.74138       -0.56841        0.04278
C         -5.00353        0.77473        0.71599
O         -5.88811        0.91824        1.54214
N         -4.20177        1.82706        0.36275
C         -3.15262        1.86603       -0.62766
C         -1.76090        1.58517       -0.02870
O         -1.29120        2.29934        0.84233
N         -1.06587        0.55422       -0.60073
C         -3.10303        3.25600       -1.29259
C         -2.95521        4.39035       -0.28190
O         -3.84101        4.64157        0.51973
N         -1.82771        5.14911       -0.38721
C          1.30940        1.03585       -0.35151
O          1.43050        1.19874       -1.75472
C          2.68794        0.63852        0.16750
N          3.26422       -0.40170       -0.67030
S          4.46723       -1.36928       -0.09120
O          3.99417       -1.88377        1.18429
O          4.83681       -2.23585       -1.19583
C          5.85576       -0.30877        0.25394
C          5.97203        0.28196        1.50918
C          7.03416        1.14678        1.75327
C          7.96541        1.40739        0.75163
C          7.84471        0.80119       -0.49690
C          6.78585       -0.06248       -0.75269
H          0.04842        0.09564        1.09989
H          1.24619       -1.80446        0.16028
H          0.74361       -1.41205       -1.47449
H         -1.21888       -2.42289       -2.36585
H         -3.45081       -3.47012       -2.06956
H         -2.95796       -3.33445        2.17843
H         -0.71388       -2.29488        1.89252
H         -5.59396       -2.84260       -1.24851
H         -6.58144       -3.54071        0.04429
H         -6.71875       -1.24403        0.48627
H         -5.53079       -1.80644        1.63374
H         -3.69364       -0.84435        0.21161
H         -4.86136       -0.45866       -1.04551
H         -4.41010        2.70683        0.82878
H         -3.36638        1.13191       -1.41392
H         -1.61652       -0.13662       -1.09696
H         -2.29862        3.27291       -2.03676
H         -4.05033        3.42171       -1.81463
H         -0.99704        4.73517       -0.78228
H         -1.67350        5.78480        0.38379
H          1.04512        1.99264        0.12057
H          0.52967        1.30084       -2.09376
H          3.33058        1.53030        0.19664
H          2.60012        0.24925        1.18714
H          3.37275       -0.15575       -1.64798
H          5.25145        0.04208        2.28576
H          7.13965        1.60999        2.73036
H          8.79560        2.08090        0.94763
H          8.58193        0.99554       -1.27098
H          6.68483       -0.56215       -1.71190
