39
omegacsd_FIBREN_10.log	Energy: -667547.2397425
N         -2.60088        1.50935        1.27901
C         -1.29432        1.70248        1.12477
N         -0.46391        0.99562        0.32204
C         -0.94290       -0.00982       -0.42324
C         -2.31868       -0.29017       -0.32477
C         -3.03943        0.50550        0.53115
O         -4.32884        0.08070        0.48026
C         -4.30911       -0.95992       -0.41574
N         -3.15328       -1.22645       -0.92446
C         -5.60738       -1.63088       -0.67565
N         -0.14280       -0.72262       -1.24112
C          1.29409       -0.55979       -1.44786
C          1.67559        0.87279       -1.93899
C          2.56318        1.72962       -1.03266
O          3.63216        2.14540       -1.41144
O          2.08553        2.01437        0.17542
C          2.14798       -1.09496       -0.29775
C          3.54031       -1.03411       -0.41223
C          4.35524       -1.55685        0.58384
C          3.79160       -2.15470        1.70793
C          2.40889       -2.22585        1.82429
C          1.59155       -1.70236        0.82497
C         -0.64859        2.79983        1.91985
H         -5.45725       -2.42161       -1.41164
H         -6.34010       -0.91297       -1.05646
H         -6.00804       -2.06314        0.24633
H         -0.60070       -1.48095       -1.72514
H          1.49525       -1.21880       -2.29908
H          2.22037        0.79934       -2.88202
H          0.75287        1.42678       -2.14333
H          1.20227        1.58070        0.29935
H          3.99615       -0.55408       -1.27568
H          5.43512       -1.49160        0.48152
H          4.42903       -2.56117        2.48876
H          1.95751       -2.69118        2.69693
H          0.51247       -1.77521        0.92583
H         -0.03974        3.43786        1.27223
H         -1.41188        3.39538        2.42195
H          0.02373        2.37073        2.67087
