39
omegacsd_GALSEM_04.log	Energy: -1046257.3831420
S         -2.55067        0.28140        1.43622
O         -1.49280        0.05294        2.42007
O         -3.84155        0.78011        1.84778
N         -2.71922       -1.25452        0.75250
C         -3.66349       -1.56811       -0.22485
O         -4.28151       -0.70775       -0.80864
C         -3.81388       -3.05624       -0.47896
C         -4.71225       -3.34060       -1.67467
C         -1.93630        1.27840        0.12637
C         -0.56547        1.32488       -0.22467
N          0.39452        0.63138        0.45730
C          1.79591        0.80110        0.29360
C          2.58999       -0.33173        0.13673
C          3.97092       -0.20086        0.03789
C          4.56879        1.05447        0.07787
C          3.77286        2.18474        0.23029
C          2.39342        2.06183        0.34961
C          4.81910       -1.42349       -0.18475
F          4.24433       -2.52876        0.32273
F          5.02090       -1.65007       -1.49611
F          6.03090       -1.29607        0.38344
C         -0.26605        2.11272       -1.35281
C         -1.27857        2.79275       -1.99970
N         -2.57121        2.77747       -1.64596
C         -2.87305        2.01563       -0.60419
H         -2.27422       -1.98269        1.29856
H         -2.81670       -3.49326       -0.61962
H         -4.22346       -3.50976        0.43375
H         -5.70103       -2.89934       -1.52771
H         -4.82670       -4.41886       -1.81776
H         -4.29243       -2.91067       -2.58807
H          0.09157        0.17945        1.31378
H          2.12414       -1.31148        0.09494
H          5.64791        1.14470        0.00009
H          4.23195        3.16805        0.27713
H          1.77234        2.94139        0.49694
H          0.75258        2.18199       -1.71755
H         -1.03569        3.40021       -2.87042
H         -3.91820        1.96630       -0.31114
