34
omegapdb_2f7p_13.log	Energy: -719059.6567802
C         -0.91459        0.21004       -0.54519
N          0.43498        0.24000       -0.02814
C          1.42449       -0.34792       -0.92478
C          2.82583       -0.18676       -0.37625
C          3.20836        1.00384        0.24528
C          4.50403        1.16470        0.72327
C          5.43553        0.13820        0.58494
C          5.06113       -1.05157       -0.03064
C          3.76159       -1.21204       -0.50446
C         -1.58706       -1.18051       -0.63455
O         -1.24143       -2.03062        0.45070
C         -3.08629       -0.85988       -0.58112
O         -3.86949       -1.98066       -0.22792
C         -3.16259        0.23666        0.49980
O         -3.08590       -0.39527        1.77726
C         -1.88376        1.06942        0.31745
S         -2.14910        2.66343       -0.51674
H         -0.88361        0.62095       -1.56449
H          0.45848       -0.27532        0.84963
H          1.23777       -1.41547       -1.13325
H          1.34653        0.17991       -1.88597
H          2.47159        1.79504        0.35756
H          4.78908        2.09627        1.20633
H          6.44796        0.26461        0.96043
H          5.77963       -1.86071       -0.13671
H          3.46972       -2.14852       -0.97703
H         -1.30130       -1.72473       -1.53969
H         -1.59039       -1.59978        1.25404
H         -3.43005       -0.46245       -1.54406
H         -3.23289       -2.65987        0.05007
H         -4.07778        0.83754        0.43402
H         -3.76851       -1.08685        1.74437
H         -1.43670        1.25403        1.29831
H         -2.88421        3.23783        0.44838
