34
omegapdb_2f7p_09.log	Energy: -719060.3508998
C          0.91320       -0.07264        0.58472
N         -0.43158        0.10989        0.08603
C         -1.46094       -0.48324        0.93455
C         -2.84813       -0.23804        0.38144
C         -3.82096       -1.23483        0.44284
C         -5.10889       -1.00305       -0.03261
C         -5.43550        0.23140       -0.58404
C         -4.46785        1.23062       -0.65606
C         -3.18409        0.99750       -0.17553
C          1.52911       -1.47719        0.37665
O          1.14758       -1.92634       -0.90194
C          3.07152       -1.24457        0.43705
O          3.68571       -1.89867       -0.65268
C          3.26168        0.29818        0.35535
O          4.36097        0.56677       -0.49371
C          1.91938        0.82249       -0.14216
S          1.72072        2.59761        0.15809
H          0.92663        0.18253        1.65420
H         -0.47412       -0.33169       -0.83164
H         -1.32117       -1.56777        1.08376
H         -1.37638       -0.01690        1.92623
H         -3.56692       -2.20588        0.86450
H         -5.85545       -1.79155        0.02122
H         -6.43858        0.41340       -0.96159
H         -4.71478        2.19674       -1.08968
H         -2.42196        1.76998       -0.23649
H          1.19825       -2.19523        1.13978
H          1.97324       -2.22760       -1.32284
H          3.48984       -1.63372        1.37251
H          4.26644       -1.23920       -1.07059
H          3.45464        0.69484        1.36295
H          4.31183        1.48620       -0.78685
H          1.84893        0.61844       -1.21727
H          0.42391        2.62265       -0.18648
