66
omegapdb_1z1r_31.log	Energy: -1302681.9276743
C         -0.14594       -2.15887       -0.05438
C         -1.14661       -2.99889       -0.87377
C         -2.55733       -2.59533       -0.53081
C         -3.10265       -2.89745        0.72124
C         -4.30075       -2.33793        1.13622
C         -4.98985       -1.46522        0.29403
C         -4.50485       -1.21591       -0.98697
C         -3.28996       -1.77197       -1.38152
O         -6.13973       -0.91762        0.79253
C         -6.43507        0.42864        0.45518
C         -5.40024        1.45058        0.95779
C         -4.39146        1.97780       -0.07372
C         -2.97221        1.43666        0.05645
O         -2.52492        0.99132        1.11305
N         -2.20986        1.59302       -1.05444
C         -0.75128        1.47614       -1.12404
C         -0.26115        0.02071       -1.22860
O          0.31628       -0.36858       -2.23587
N         -0.44203       -0.72971       -0.11665
C         -0.03181        2.22577        0.00939
C         -0.55094        3.65221        0.10161
O         -0.32829        4.47987       -0.76487
N         -1.29142        3.91972        1.21385
C          1.30345       -2.49503       -0.42755
O          1.53173       -3.80007        0.06546
C          2.30104       -1.51302        0.17788
N          3.65282       -1.94930       -0.18765
S          4.93205       -1.23980        0.62234
O          4.70456       -1.46126        2.03804
O          6.12606       -1.70058       -0.06186
C          4.75932        0.50634        0.31507
C          3.98622        1.27876        1.17813
C          3.78667        2.62462        0.88575
C          4.35871        3.18303       -0.25523
C          5.14455        2.40351       -1.10106
C          5.34875        1.05716       -0.81979
H         -0.25015       -2.43148        1.00249
H         -0.95301       -2.83335       -1.93978
H         -0.95385       -4.05537       -0.65857
H         -2.55785       -3.55366        1.39850
H         -4.71112       -2.53919        2.12135
H         -5.05742       -0.58160       -1.67477
H         -2.88952       -1.53528       -2.36604
H         -7.39533        0.60695        0.94542
H         -6.60358        0.53792       -0.62645
H         -5.95719        2.30596        1.35462
H         -4.85557        1.01519        1.80293
H         -4.75501        1.82708       -1.09791
H         -4.27748        3.06445        0.04335
H         -2.65994        1.96566       -1.87649
H         -0.46316        1.94119       -2.06855
H         -1.09195       -0.36120        0.57407
H          1.03460        2.27020       -0.23907
H         -0.14089        1.69747        0.95788
H         -1.62183        3.17392        1.80920
H         -1.72226        4.82942        1.28463
H          1.40675       -2.46760       -1.52242
H          2.49147       -3.93454        0.05641
H          2.22826       -1.54725        1.26967
H          2.09922       -0.49264       -0.16747
H          3.82861       -1.90384       -1.18948
H          3.56627        0.82791        2.07280
H          3.18898        3.24043        1.55273
H          4.19632        4.23336       -0.48152
H          5.60135        2.84602       -1.98176
H          5.97061        0.43614       -1.45860
