35
omegacsd_DIAVER_02.log	Energy: -548603.2971710
N          3.82764        0.80894       -0.84777
C          3.98536        0.61605        0.46573
N          3.24131       -0.16241        1.26301
C          2.23432       -0.81426        0.68353
C          1.95585       -0.70236       -0.70021
C          2.80897        0.13563       -1.39055
C          0.83953       -1.46779       -1.36157
C         -0.55447       -1.10029       -0.87739
C         -0.92416        0.24777       -0.77343
C         -2.20068        0.60823       -0.35901
C         -3.13094       -0.39751       -0.01986
C         -2.76073       -1.72622       -0.11643
C         -1.47972       -2.08260       -0.54688
O         -4.40874       -0.07911        0.35402
C         -4.51602        0.51805        1.63805
O         -2.64572        1.88704       -0.25013
C         -1.75885        2.92179       -0.62338
N          1.49781       -1.64227        1.48594
N          4.99288        1.31516        1.07261
H          2.66992        0.27443       -2.46472
H          0.98740       -2.54646       -1.21394
H          0.89915       -1.29784       -2.44479
H         -0.18938        1.00754       -1.02291
H         -3.49859       -2.48020        0.14326
H         -1.21001       -3.13366       -0.63025
H         -5.58116        0.68585        1.81038
H         -4.12542       -0.15558        2.41272
H         -3.98345        1.47359        1.67937
H         -2.30959        3.85361       -0.48743
H         -0.86295        2.93250        0.01032
H         -1.45726        2.82715       -1.67399
H          1.65381       -1.51116        2.47499
H          0.54248       -1.83152        1.21606
H          5.70014        1.68720        0.45866
H          5.29230        0.97623        1.97293
