36
omegapdb_1qxw_04.log	Energy: -410438.9136245
C         -4.14786       -1.60179       -0.89785
C         -4.95817       -0.91679        0.17462
C         -3.49606       -1.13695        0.38016
N         -2.60564       -0.00844        0.41108
C         -1.30694       -0.26576       -0.19931
C         -0.44212        0.96939        0.04305
C          1.00694        0.87952       -0.46957
N          1.55097        2.23463       -0.32463
C          1.82876       -0.21951        0.21031
C          3.26691       -0.31390       -0.29739
C          4.05537       -1.44616        0.35928
C          5.49738       -1.52878       -0.13439
O         -0.36029        1.21922        1.42644
O         -1.09374        2.01996       -0.62682
H         -3.93624       -1.03466       -1.80149
H         -4.29386       -2.66651       -1.05824
H         -5.29152        0.10040       -0.01857
H         -5.65807       -1.50744        0.75830
H         -3.21247       -1.91183        1.09105
H         -3.02260        0.79341       -0.05532
H         -0.86297       -1.13417        0.29927
H         -1.36502       -0.47964       -1.27897
H          0.94669        0.67649       -1.54759
H          2.42827        2.33250       -0.82410
H          1.73026        2.41621        0.66026
H          1.33735       -1.18950        0.05088
H          1.81991       -0.04167        1.29351
H          3.26576       -0.45798       -1.38882
H          3.79104        0.63493       -0.11235
H          4.04465       -1.30583        1.44879
H          3.54460       -2.40010        0.16933
H          6.04118       -2.34650        0.35025
H          6.03817       -0.59780        0.07354
H          5.53423       -1.69811       -1.21711
H         -1.26697        1.07819        1.75070
H         -0.42269        2.72735       -0.65891
