57
omegacsd_SPIRIL_15.log	Energy: -797191.6281342
C         -2.63479       -1.52046       -0.94441
C         -3.66305       -0.73331       -0.11102
C         -5.05989       -1.34819       -0.24925
O         -5.33532       -2.52858       -0.16111
N         -5.92705       -0.32241       -0.45493
C         -5.29286        0.97389       -0.43825
N         -3.89671        0.62403       -0.65313
C         -2.92606        1.64467       -0.43191
C         -1.88770        1.78703       -1.35813
C         -0.88049        2.72588       -1.16000
C         -0.91387        3.56411       -0.04855
C         -1.96578        3.45940        0.85645
C         -2.96254        2.50606        0.67041
C         -3.27651       -0.78748        1.39160
C         -1.76582       -0.81919        1.59770
N         -1.19629       -2.03885        1.03283
C          0.23959       -1.95547        0.84479
C          0.73628       -1.08081       -0.33127
C          2.23426       -0.98039       -0.34643
C          2.98944        0.04743        0.06668
C          4.47678       -0.03913       -0.01856
C          5.10316       -0.68273       -1.09303
C          6.48655       -0.78306       -1.17527
C          7.25473       -0.21963       -0.16954
C          6.67871        0.44074        0.90285
C          5.29284        0.53058        0.96622
F          8.59601       -0.30603       -0.24253
C          2.42854        1.32428        0.64691
C         -1.95143       -2.59302       -0.09249
H         -3.12738       -1.97065       -1.81309
H         -1.87830       -0.82462       -1.31986
H         -6.92362       -0.46819       -0.48682
H         -5.48868        1.48931        0.51926
H         -5.65127        1.61719       -1.25109
H         -1.89036        1.15700       -2.24288
H         -0.07645        2.81355       -1.88659
H         -0.13236        4.30402        0.10323
H         -2.00795        4.11762        1.72064
H         -3.76470        2.42928        1.40004
H         -3.70954       -1.69346        1.83186
H         -3.71164        0.06697        1.92303
H         -1.32641        0.09415        1.15906
H         -1.53917       -0.78588        2.67249
H          0.67403       -1.56637        1.77544
H          0.63780       -2.97188        0.72164
H          0.27345       -0.08932       -0.27901
H          0.40073       -1.53278       -1.27503
H          2.75158       -1.87786       -0.68930
H          4.49379       -1.09511       -1.89297
H          6.97337       -1.27588       -2.01105
H          7.31353        0.87206        1.67058
H          4.84232        1.04403        1.81159
H          1.35278        1.42412        0.48169
H          2.59399        1.37150        1.73078
H          2.92328        2.19912        0.20941
H         -2.71841       -3.28782        0.27325
H         -1.26619       -3.18363       -0.71090
