66
omegapdb_1z1r_03.log	Energy: -1302685.7155599
C          0.13483       -0.10823        0.24598
C          0.03407       -1.27527       -0.75993
C         -1.28382       -2.00548       -0.64866
C         -2.17236       -2.04660       -1.72483
C         -3.44766       -2.58986       -1.58990
C         -3.86559       -3.06297       -0.34856
C         -2.96659       -3.10332        0.71456
C         -1.68588       -2.58814        0.55685
O         -5.15934       -3.46759       -0.12863
C         -6.13895       -2.42622       -0.18194
C         -5.87980       -1.26126        0.78121
C         -5.01258       -0.14889        0.18831
C         -4.57604        0.87546        1.22236
O         -5.03534        0.91179        2.34975
N         -3.58262        1.74944        0.83968
C         -3.03642        1.95073       -0.48532
C         -1.59878        1.43206       -0.66834
O         -0.99229        1.72475       -1.70468
N         -1.11467        0.65892        0.30947
C         -3.10065        3.41555       -0.92833
C         -2.22123        4.30189       -0.05845
O         -1.81204        3.93866        1.03640
N         -1.95680        5.53348       -0.56010
C          1.35165        0.82859        0.01206
O          1.62690        1.06279       -1.34910
C          2.65169        0.30657        0.61680
N          3.10944       -0.85348       -0.14071
S          4.47106       -1.64869        0.36633
O          4.28478       -1.91835        1.78196
O          4.69947       -2.70112       -0.60704
C          5.81262       -0.48485        0.22334
C          6.14184        0.31806        1.31169
C          7.16196        1.25480        1.17678
C          7.83986        1.37770       -0.03281
C          7.50848        0.56104       -1.11194
C          6.49050       -0.37729       -0.98833
H          0.24648       -0.52444        1.25347
H          0.15328       -0.87849       -1.77234
H          0.88201       -1.94393       -0.57807
H         -1.86827       -1.62430       -2.68090
H         -4.13955       -2.59814       -2.42874
H         -3.29894       -3.51229        1.66458
H         -0.99826       -2.60939        1.40135
H         -7.07149       -2.93215        0.08015
H         -6.24001       -2.05840       -1.21488
H         -5.41850       -1.65084        1.69490
H         -6.83954       -0.83393        1.09122
H         -5.56483        0.36486       -0.61260
H         -4.11796       -0.56576       -0.28177
H         -3.29841        2.42824        1.53809
H         -3.63002        1.37118       -1.19907
H         -1.73387        0.50324        1.09243
H         -4.13552        3.77164       -0.86255
H         -2.78246        3.48255       -1.97269
H         -2.15828        5.77350       -1.51713
H         -1.33742        6.13215       -0.03467
H          1.11642        1.77132        0.53202
H          0.78844        1.38190       -1.74043
H          3.38846        1.12348        0.58798
H          2.50744        0.00630        1.65843
H          3.11531       -0.68085       -1.14355
H          5.61756        0.18611        2.25382
H          7.43236        1.88384        2.02048
H          8.63715        2.10951       -0.13357
H          8.04850        0.65095       -2.05043
H          6.23148       -1.03912       -1.80996
