45
omegacsd_SEYMIS_02.log	Energy: -753206.7803493
O         -3.61863        2.99469       -0.01666
N         -4.39909        1.90743        0.30371
C         -3.66636        0.84263        0.08943
C         -2.35561        1.22035       -0.37118
C         -1.18760        0.37691       -0.75737
O         -1.25788       -0.56224       -1.53727
N         -0.01200        0.77353       -0.18783
C          1.23900        0.17103       -0.41372
C          1.53480       -0.89219       -1.24937
N          2.87037       -1.13977       -1.16664
C          3.54680       -2.19143       -1.91057
C          3.43768       -0.25015       -0.28701
C          2.44090        0.57865        0.19548
C          4.86720       -0.25632        0.02620
O          5.68469       -1.01942       -0.45013
O          5.17181        0.70404        0.91741
C          6.55233        0.78060        1.31065
C          6.87700       -0.24414        2.38112
C         -2.41021        2.58212       -0.41355
C         -1.45314        3.64617       -0.82755
C         -4.24457       -0.48602        0.39388
C         -3.88914       -1.62611       -0.33052
C         -4.47676       -2.85076       -0.02753
C         -5.41987       -2.94795        0.98997
C         -5.77965       -1.81154        1.71066
C         -5.19513       -0.58705        1.41610
H         -0.05445        1.46646        0.54408
H          0.88414       -1.47500       -1.88157
H          4.05040       -2.87921       -1.22979
H          4.29446       -1.76765       -2.58338
H          2.79231       -2.72842       -2.48869
H          2.58630        1.37924        0.90899
H          7.18037        0.64152        0.42689
H          6.67164        1.80095        1.68267
H          7.90954       -0.11409        2.72206
H          6.21136       -0.12673        3.24177
H          6.76960       -1.25649        1.98283
H         -1.16308        4.26456        0.02867
H         -0.55613        3.20418       -1.26601
H         -1.92193        4.30175       -1.56713
H         -3.15702       -1.54897       -1.12804
H         -4.19625       -3.73347       -0.59648
H         -5.87601       -3.90726        1.22160
H         -6.51651       -1.87956        2.50680
H         -5.46965        0.30451        1.97261
