66
omegapdb_1z1r_06.log	Energy: -1302682.8789221
C          0.12435       -0.09225        0.37789
C          0.17344       -1.28651       -0.60813
C         -1.10584       -2.08534       -0.62016
C         -2.00578       -1.95842       -1.68120
C         -3.27636       -2.52116       -1.61552
C         -3.66554       -3.21294       -0.47202
C         -2.73631       -3.46238        0.53741
C         -1.47148       -2.89027        0.46168
O         -4.98177       -3.57781       -0.34780
C         -5.67049       -2.95319        0.74063
C         -5.73556       -1.42511        0.67251
C         -4.43521       -0.70034        1.03974
C         -4.62559        0.77742        1.33872
O         -5.44446        1.16547        2.14862
N         -3.72380        1.65473        0.75355
C         -3.21429        1.54245       -0.60720
C         -1.71937        1.18539       -0.71034
O         -1.11604        1.39530       -1.77147
N         -1.16944        0.60214        0.36152
C         -3.48884        2.82877       -1.40271
C         -2.79944        4.01119       -0.73954
O         -3.24059        4.50483        0.28993
N         -1.66570        4.44543       -1.34544
C          1.30102        0.88956        0.16818
O          1.56197        1.16015       -1.19108
C          2.60041        0.34021        0.74409
N          3.64379        1.32493        0.49587
S          5.16777        1.03374        1.07252
O          5.01336        0.66088        2.46822
O          5.97536        2.16125        0.64553
C          5.76291       -0.40786        0.20939
C          6.38642       -0.25057       -1.02594
C          6.81590       -1.37887       -1.71487
C          6.62280       -2.64610       -1.16875
C          6.00685       -2.79112        0.07111
C          5.57331       -1.66805        0.76931
H          0.20425       -0.48055        1.40017
H          0.38781       -0.90568       -1.60931
H          1.02464       -1.91577       -0.32143
H         -1.72636       -1.36054       -2.54694
H         -4.00268       -2.37573       -2.41064
H         -3.02474       -4.05534        1.40156
H         -0.76572       -3.04937        1.27624
H         -5.22940       -3.26775        1.69784
H         -6.68058       -3.36717        0.68737
H         -6.06871       -1.13145       -0.33166
H         -6.50852       -1.09307        1.37606
H         -4.04568       -1.12542        1.97551
H         -3.66031       -0.85467        0.29037
H         -3.87018        2.62000        1.05033
H         -3.72500        0.71998       -1.12473
H         -1.76589        0.53795        1.17543
H         -4.56455        3.02268       -1.40016
H         -3.15163        2.68534       -2.43076
H         -1.20382        3.85658       -2.02339
H         -1.11280        5.13253       -0.85320
H          1.05719        1.81790        0.70851
H          0.70550        1.37876       -1.60822
H          2.83194       -0.63008        0.27599
H          2.51324        0.20007        1.82540
H          3.64739        1.66396       -0.46287
H          6.54959        0.74702       -1.42402
H          7.30981       -1.26857       -2.67627
H          6.96338       -3.52532       -1.70939
H          5.87149       -3.77964        0.50143
H          5.11559       -1.75483        1.75056
