44
omegacsd_CUHNEY10_16.log	Energy: -1049273.3919305
Cl        -2.37551       -5.09810       -0.04548
C         -1.19651       -3.82736       -0.10641
C         -0.24695       -3.70669        0.90002
N          0.67133       -2.74620        0.91331
C          0.69581       -1.88525       -0.09727
N          1.69644       -0.89085       -0.05037
C          2.94939       -1.04378        0.57267
O          3.40133       -2.02897        1.09037
C          3.62096        0.28678        0.38582
N          4.81680        0.64977        0.83244
C          5.14183        1.90303        0.51171
C          4.29898        2.74520       -0.22580
N          3.10051        2.36267       -0.67384
C          2.79572        1.11495       -0.34746
C          1.52014        0.39760       -0.70106
O          0.40564        1.08817       -0.16631
C         -0.57055        1.45377       -1.05456
O         -0.55417        1.14882       -2.23460
N         -1.52349        2.17845       -0.43519
C         -1.47758        2.50626        0.99013
C         -2.85097        3.01358        1.42989
N         -3.86865        2.13993        0.88119
C         -3.98125        2.27149       -0.56915
C         -2.64661        2.69235       -1.19952
C         -5.15545        2.26483        1.52922
C         -0.22213       -1.91717       -1.15412
C         -1.19064       -2.90811       -1.14768
H         -0.23738       -4.40552        1.73397
H          6.11030        2.26261        0.85176
H          4.60885        3.76130       -0.45885
H          1.38459        0.30638       -1.78240
H         -1.23325        1.60035        1.54957
H         -0.70104        3.25538        1.19181
H         -2.89839        2.97208        2.52307
H         -2.99629        4.07432        1.14627
H         -4.73783        3.02863       -0.84921
H         -4.31581        1.31051       -0.97936
H         -2.57541        3.78690       -1.24105
H         -2.55800        2.31828       -2.21969
H         -5.60976        3.26626        1.40125
H         -5.05475        2.06430        2.60091
H         -5.84771        1.52579        1.11102
H         -0.20530       -1.17917       -1.94982
H         -1.92733       -2.97008       -1.94297
