57
omegacsd_SPIRIL_21.log	Energy: -797189.9939113
C         -2.82221       -0.27023       -1.40287
C         -3.14642       -0.95087       -0.06523
C         -4.22122       -2.03649       -0.26030
O         -4.27116       -2.85389       -1.15812
N         -5.07676       -1.93422        0.80022
C         -4.58471       -0.97188        1.77839
N         -3.71496       -0.09128        1.01148
C         -4.30377        1.15881        0.63048
C         -3.49507        2.29594        0.65808
C         -4.00794        3.53745        0.29797
C         -5.34351        3.66099       -0.07489
C         -6.15785        2.53251       -0.09497
C         -5.64167        1.28584        0.24615
C         -1.87167       -1.65126        0.47713
C         -0.98125       -2.12011       -0.67365
N         -0.49414       -1.00918       -1.49431
C          0.91365       -0.69963       -1.35339
C          1.38514       -0.20990        0.03558
C          2.84087        0.16033        0.01106
C          3.87839       -0.57361        0.43615
C          5.27132       -0.06262        0.28109
C          6.24348       -0.30965        1.25772
C          7.53977        0.17660        1.13139
C          7.86803        0.91117        0.00404
C          6.94243        1.16426       -0.99516
C          5.65227        0.66974       -0.84983
F          9.12223        1.38073       -0.13001
C          3.73065       -1.92131        1.10240
C         -1.36300        0.16048       -1.49551
H         -3.01994       -1.00820       -2.18875
H         -3.48559        0.57890       -1.58385
H         -5.67442       -2.71280        1.03662
H         -4.01360       -1.47496        2.57277
H         -5.39870       -0.40706        2.23919
H         -2.46169        2.18818        0.97805
H         -3.36527        4.41391        0.32372
H         -5.74887        4.63211       -0.34631
H         -7.20080        2.61898       -0.38948
H         -6.27563        0.40285        0.20028
H         -1.33926       -0.92330        1.10036
H         -2.13818       -2.49767        1.12379
H         -1.55159       -2.82529       -1.29364
H         -0.11967       -2.67155       -0.27937
H          1.16464        0.06382       -2.10310
H          1.49621       -1.59179       -1.61962
H          0.79925        0.66987        0.33211
H          1.18321       -0.98374        0.78498
H          3.05820        1.13361       -0.43121
H          5.98521       -0.88238        2.14484
H          8.29315       -0.00522        1.89149
H          7.24165        1.72606       -1.87449
H          4.92846        0.83643       -1.64327
H          2.73769       -2.35058        0.94942
H          3.89464       -1.85232        2.18542
H          4.46835       -2.62934        0.70933
H         -1.19963        0.71661       -2.42796
H         -1.14175        0.86277       -0.66910
