50
omegapdb_1xom_08.log	Energy: -710687.1220566
O         -5.96866        1.65969        0.67646
C         -5.06986        1.42315       -0.30083
O         -5.40039        1.23502       -1.44770
C         -3.65499        1.41375        0.23761
C         -3.52100        0.33057        1.34150
C         -2.11069       -0.25145        1.35512
C         -1.81632       -1.04226        0.04719
C         -2.38826       -0.26283       -1.18583
C         -2.63264        1.21761       -0.89193
C         -2.55032       -2.32102        0.14226
N         -3.15360       -3.30397        0.24000
C         -0.31398       -1.32254       -0.05328
C          0.24355       -2.52318        0.36561
C          1.62310       -2.73514        0.31606
C          2.47346       -1.74090       -0.15236
O          3.82353       -1.85307       -0.25582
C          4.40330       -3.08729        0.11144
C          1.92009       -0.51285       -0.56684
C          0.55081       -0.32163       -0.51347
O          2.71403        0.47490       -1.08288
C          3.53754        1.15678       -0.13730
C          4.49830        2.07755       -0.88623
C          4.87483        3.17898        0.13004
C          3.88536        3.02153        1.31474
C          2.77495        2.10619        0.78742
H         -6.84276        1.62357        0.25384
H         -3.49814        2.39686        0.69952
H         -4.23642       -0.48435        1.16883
H         -3.77604        0.75660        2.31585
H         -1.36631        0.54882        1.44410
H         -1.96563       -0.91425        2.21461
H         -1.70710       -0.38295       -2.03358
H         -3.34286       -0.70590       -1.48936
H         -2.99848        1.70467       -1.80017
H         -1.69582        1.71564       -0.61683
H         -0.39567       -3.32607        0.72383
H          2.01817       -3.69320        0.63732
H          4.22366       -3.31637        1.16982
H          4.01896       -3.90813       -0.50704
H          5.47539       -2.97794       -0.05807
H          0.17854        0.63909       -0.85944
H          4.09394        0.41880        0.45522
H          5.36133        1.53811       -1.28634
H          3.95137        2.49806       -1.73798
H          4.79135        4.17038       -0.32617
H          5.91025        3.07759        0.47026
H          4.38697        2.54005        2.16284
H          3.50233        3.98069        1.67626
H          2.21865        1.59209        1.57840
H          2.05790        2.67340        0.17838
