57
omegacsd_SPIRIL_20.log	Energy: -797189.6602896
C          2.60227       -0.08232       -1.18884
C          3.13136        0.69606        0.05106
C          2.78583        2.19365       -0.06170
O          1.76873        2.75472        0.28740
N          3.86546        2.78767       -0.64666
C          5.00524        1.90913       -0.75679
N          4.60983        0.79298        0.09052
C          5.41094       -0.37975        0.05678
C          5.58731       -1.10252        1.24318
C          6.36061       -2.25623        1.26468
C          6.99922       -2.69643        0.10780
C          6.85151       -1.97269       -1.06948
C          6.05848       -0.82807       -1.09968
C          2.54554        0.08829        1.32339
C          1.00789        0.06298        1.31491
N          0.46362       -0.10440       -0.03039
C         -0.90769       -0.57005       -0.02116
C         -1.86118        0.43450        0.63302
C         -3.29216        0.00448        0.47852
C         -4.34807        0.75133        0.12898
C         -5.69642        0.12397        0.00561
C         -5.84997       -1.16747       -0.51329
C         -7.09988       -1.76524       -0.61896
C         -8.21434       -1.05257       -0.20747
C         -8.11111        0.23342        0.29612
C         -6.85153        0.81378        0.39301
F         -9.43064       -1.62090       -0.31032
C         -4.27830        2.23670       -0.13084
C          1.34129       -0.89247       -0.87196
H          2.38390        0.62092       -2.00097
H          3.38722       -0.76082       -1.54438
H          3.92186        3.79061       -0.72636
H          5.17647        1.63753       -1.81235
H          5.92142        2.37166       -0.36927
H          5.12746       -0.72937        2.15352
H          6.48312       -2.80199        2.19685
H          7.61467       -3.59186        0.12755
H          7.34848       -2.30240       -1.97848
H          5.94446       -0.28832       -2.03591
H          2.92920       -0.93456        1.41261
H          2.90302        0.64324        2.19729
H          0.67562       -0.76211        1.97655
H          0.62683        0.99972        1.72879
H         -1.22062       -0.71922       -1.06242
H         -1.00626       -1.55305        0.48815
H         -1.62729        0.51811        1.70357
H         -1.66960        1.41878        0.19423
H         -3.47424       -1.04906        0.70118
H         -4.97269       -1.70644       -0.86157
H         -7.22189       -2.76333       -1.02813
H         -9.00749        0.76201        0.60521
H         -6.76983        1.82115        0.79291
H         -3.25148        2.58497       -0.25928
H         -4.84678        2.50240       -1.02906
H         -4.70874        2.80440        0.70384
H          0.81755       -1.12672       -1.80532
H          1.60807       -1.86459       -0.41057
