25
omegapdb_1m5f_06.log	Energy: -499679.6983109
O         -2.89404       -2.40886        0.19576
C         -1.70039       -1.82292        0.05820
O         -0.65664       -2.43708        0.02132
C         -1.77043       -0.34493       -0.03818
N         -2.86778        0.30594        0.26459
O         -2.55201        1.62346        0.11770
C         -1.26808        1.75396       -0.27298
C         -0.70278        0.52427       -0.40429
C          0.70110        0.18109       -0.78884
C          1.61223        0.04828        0.44879
N          1.68096        1.30632        1.17290
C          2.98908       -0.42812        0.00286
O          3.99266        0.24607        0.03887
O          2.97286       -1.68261       -0.47611
C         -0.74926        3.13772       -0.43150
H         -2.71757       -3.36165        0.26890
H          1.10746        0.96868       -1.43750
H          0.72001       -0.75858       -1.34678
H          1.17889       -0.72986        1.08695
H          2.43927        1.85649        0.77329
H          1.95376        1.13293        2.13562
H          3.88147       -1.88063       -0.75808
H         -0.28941        3.47356        0.50288
H          0.01869        3.16677       -1.20941
H         -1.55645        3.82259       -0.70305
