61
omegapdb_1v2k_06.log	Energy: -1425431.7704463
N         10.70286        0.50374       -0.04192
C         10.16153       -0.60227        0.47996
C          8.80946       -0.89812        0.47419
C          7.90476        0.00432       -0.11197
C          8.46549        1.16745       -0.65821
C          9.84210        1.35422       -0.59697
N          6.53896       -0.28229       -0.16870
C          5.68361        0.61565       -0.92713
C          4.35831       -0.05766       -1.27669
C          3.63926       -0.58245       -0.02522
C          4.59217       -1.50126        0.73922
C          5.90046       -0.78363        1.04817
C          2.38168       -1.34021       -0.43862
O          2.42635       -2.53701       -0.69014
N          1.21948       -0.62504       -0.55900
C          0.00018       -1.34356       -0.91112
C         -1.15681       -0.88007       -0.03886
N         -1.39002        0.56411       -0.23884
C         -0.24579        1.30774       -0.78336
C          1.08170        0.79526       -0.23582
S         -2.21594        1.31397        1.01247
O         -1.70617        0.87096        2.30551
O         -2.25283        2.73143        0.68601
C         -3.84471        0.63090        0.82628
C         -4.69980        1.19617       -0.08143
C         -6.00125        0.66105       -0.24738
C         -6.39476       -0.45495        0.53677
C         -5.48006       -1.00135        1.47732
C         -4.22832       -0.47018        1.62837
C         -7.69726       -0.99553        0.36806
C         -8.55096       -0.43730       -0.54145
C         -8.17300        0.67873       -1.32859
C         -6.92397        1.21207       -1.17840
Cl       -10.14466       -1.09555       -0.75332
H         10.86067       -1.30846        0.92649
H          8.47149       -1.84108        0.89132
H          7.85263        1.93915       -1.11031
H         10.27370        2.26114       -1.01988
H          5.49235        1.55396       -0.37184
H          6.19361        0.88211       -1.85689
H          3.73097        0.65600       -1.82626
H          4.55072       -0.90526       -1.94545
H          3.38263        0.26858        0.62009
H          4.78355       -2.39380        0.13616
H          4.13142       -1.83386        1.67648
H          5.71087        0.05560        1.74326
H          6.57906       -1.46885        1.55759
H          0.18968       -2.40588       -0.75018
H         -0.24070       -1.20886       -1.97383
H         -2.06725       -1.43018       -0.30307
H         -0.91681       -1.08855        1.01198
H         -0.26155        1.21091       -1.87465
H         -0.37342        2.36576       -0.54825
H          1.89363        1.37187       -0.69228
H          1.11515        0.96139        0.85042
H         -4.38527        2.05742       -0.66582
H         -5.79364       -1.84606        2.08586
H         -3.52951       -0.86215        2.36110
H         -8.00856       -1.84936        0.96317
H         -8.88175        1.09317       -2.03842
H         -6.62106        2.06941       -1.77466
