36
omegapdb_1qxw_06.log	Energy: -410438.1185273
C          3.46918       -2.19210       -0.14236
C          4.65677       -1.32067        0.16006
C          3.51342       -0.77883       -0.64173
N          2.64821        0.17285       -0.00090
C          1.30779        0.23679       -0.57663
C          0.45260        1.09363        0.35630
C         -1.04108        1.14698        0.00571
N         -1.16787        1.71554       -1.33320
C         -1.72508       -0.21692        0.08379
C         -3.24674       -0.13995       -0.04200
C         -3.92557       -1.49692        0.13901
C         -5.44452       -1.42062        0.00808
O          1.00339        2.41046        0.25556
O          0.57348        0.63796        1.66995
H          2.78080       -2.39832        0.67252
H          3.58507       -2.99775       -0.86129
H          5.59417       -1.52337       -0.34953
H          4.75738       -0.94946        1.17567
H          3.68075       -0.64723       -1.71470
H          3.05647        1.10329       -0.03984
H          0.90289       -0.77983       -0.60689
H          1.27299        0.64911       -1.59397
H         -1.48981        1.78808        0.79101
H         -0.65966        2.59584       -1.35428
H         -2.14061        1.92837       -1.53048
H         -1.46016       -0.67913        1.04215
H         -1.33317       -0.85928       -0.71588
H         -3.52371        0.26210       -1.02757
H         -3.64187        0.56461        0.70568
H         -3.65863       -1.90411        1.12370
H         -3.52566       -2.20192       -0.60271
H         -5.73550       -1.04464       -0.98010
H         -5.86975       -0.74299        0.75807
H         -5.91043       -2.40261        0.14251
H          0.74762        2.85270        1.07739
H          1.49300        0.31215        1.72175
