39
omegacsd_FIBREN_05.log	Energy: -667550.0833393
N          3.50138        1.27991        0.33814
C          2.33800        1.92229        0.37418
N          1.10827        1.37548        0.22526
C          0.98379        0.05496        0.01246
C          2.16331       -0.71031       -0.03954
C          3.33811       -0.02078        0.13249
O          4.34783       -0.92618        0.05504
C          3.71296       -2.12524       -0.16036
N          2.42573       -2.06255       -0.22645
C          4.58443       -3.32105       -0.27898
N         -0.23436       -0.49592       -0.14970
C         -1.48307        0.24429        0.03136
C         -1.72022        1.26861       -1.11593
C         -1.98822        2.68382       -0.61291
O         -2.97890        3.30853       -0.89518
O         -1.03200        3.19530        0.17421
C         -2.61827       -0.75181        0.16001
C         -3.42657       -0.76036        1.29421
C         -4.47072       -1.67435        1.41080
C         -4.70918       -2.59435        0.39598
C         -3.90514       -2.59292       -0.74145
C         -2.86955       -1.67357       -0.86029
C          2.36406        3.40312        0.62141
H          5.30899       -3.19056       -1.08831
H          3.96320       -4.19381       -0.48344
H          5.14173       -3.48200        0.64903
H         -0.27332       -1.50479       -0.18820
H         -1.40618        0.79202        0.97920
H         -0.83354        1.29863       -1.75906
H         -2.57289        0.97635       -1.73132
H         -0.27355        2.56226        0.24296
H         -3.24153       -0.04375        2.09164
H         -5.09630       -1.66730        2.29948
H         -5.52126       -3.31068        0.48797
H         -4.08906       -3.30642       -1.54044
H         -2.25453       -1.66689       -1.75945
H          1.73820        3.92796       -0.10666
H          1.95660        3.62217        1.61455
H          3.38863        3.77312        0.56803
