34
omegapdb_2f7p_03.log	Energy: -719064.0679647
C         -0.96408        0.19334       -0.67021
N          0.38131        0.23239       -0.12006
C          1.43803        0.16193       -1.13160
C          2.79632        0.06338       -0.48114
C          3.70030        1.12133       -0.53706
C          4.94202        1.02579        0.08852
C          5.28620       -0.13141        0.77721
C          4.38676       -1.19498        0.83863
C          3.15069       -1.09606        0.21341
C         -1.41431       -1.29262       -0.86599
O         -0.68963       -2.12882        0.01118
C         -2.93165       -1.32312       -0.49335
O         -3.13582       -2.02147        0.71526
C         -3.31774        0.15122       -0.24782
O         -4.39943        0.28886        0.62778
C         -2.01350        0.75675        0.28053
S         -1.99094        2.56691        0.35419
H         -1.03440        0.72246       -1.63517
H          0.51155        1.05195        0.46743
H          1.25066       -0.73589       -1.73481
H          1.40444        1.02345       -1.81823
H          3.43306        2.02869       -1.07604
H          5.63973        1.85769        0.03649
H          6.25453       -0.20861        1.26482
H          4.65306       -2.10372        1.37236
H          2.44795       -1.92695        0.25451
H         -1.25508       -1.62813       -1.89729
H         -0.01965       -1.52680        0.40996
H         -3.54348       -1.77876       -1.28090
H         -2.26346       -2.39702        0.94136
H         -3.58391        0.64549       -1.19088
H         -4.31312       -0.46176        1.24071
H         -1.83300        0.34925        1.28354
H         -3.11809        2.66943        1.07499
