66
omegapdb_1z1r_27.log	Energy: -1302673.4513893
C          0.37040        0.11255        0.56177
C          0.47502       -1.40312        0.93731
C         -0.77540       -2.19620        0.62099
C         -1.08620       -2.56708       -0.69091
C         -2.34973       -3.04570       -1.01862
C         -3.33692       -3.13987       -0.03354
C         -3.01392       -2.86708        1.29337
C         -1.74248       -2.40060        1.60901
O         -4.61825       -3.52629       -0.30908
C         -5.31319       -2.82280       -1.33601
C         -5.92639       -1.49956       -0.88065
C         -4.94390       -0.34488       -0.63008
C         -4.67223       -0.10475        0.85160
O         -5.27201       -0.68556        1.73818
N         -3.68132        0.79821        1.17460
C         -3.06110        1.79892        0.32474
C         -1.52049        1.74063        0.45388
O         -0.83123        2.74728        0.55491
N         -1.03255        0.48192        0.39194
C         -3.56665        3.22192        0.57564
C         -3.32434        4.07579       -0.66503
O         -3.95976        3.86884       -1.68628
N         -2.39018        5.05845       -0.53811
C          1.14110        0.50195       -0.71410
O          0.65515       -0.19265       -1.84841
C          2.63696        0.19946       -0.67799
N          3.26542        0.74654        0.51821
S          4.83715        1.28774        0.43623
O          5.17706        1.66112        1.79706
O          4.90396        2.21516       -0.67731
C          5.82412       -0.13043        0.00148
C          6.07203       -0.40523       -1.34047
C          6.80639       -1.53897       -1.67342
C          7.28590       -2.37843       -0.67177
C          7.04201       -2.08600        0.66844
C          6.30819       -0.95657        1.01269
H          0.77923        0.72559        1.37494
H          0.68037       -1.48424        2.01044
H          1.33332       -1.83841        0.41530
H         -0.34106       -2.42769       -1.47063
H         -2.57538       -3.32316       -2.04482
H         -3.78946       -2.95574        2.04711
H         -1.51870       -2.13338        2.64057
H         -6.11387       -3.50165       -1.64263
H         -4.66023       -2.66626       -2.20568
H         -6.50546       -1.67383        0.03130
H         -6.63199       -1.20172       -1.66529
H         -5.34289        0.58980       -1.04696
H         -3.99103       -0.51887       -1.14757
H         -3.61954        0.94810        2.17502
H         -3.30322        1.54865       -0.71355
H         -1.71826       -0.25538        0.48427
H         -3.10249        3.64679        1.47052
H         -4.65010        3.18267        0.71994
H         -1.64301        4.88451        0.12195
H         -2.12243        5.50820       -1.40305
H          1.01626        1.58698       -0.83386
H         -0.28271        0.02889       -1.93114
H          2.80581       -0.88157       -0.78240
H          3.08678        0.68556       -1.54751
H          3.12554        0.21747        1.37290
H          5.71348        0.27793       -2.10499
H          7.01067       -1.76115       -2.71707
H          7.86145       -3.26170       -0.93602
H          7.43142       -2.73521        1.44778
H          6.12909       -0.69772        2.05254
