36
omegapdb_1qxw_02.log	Energy: -410438.7190463
C         -5.10497       -0.31467        0.26649
C         -4.44967       -0.90141       -0.95315
C         -3.72519       -0.88961        0.36011
N         -2.63353        0.03398        0.49637
C         -1.35361       -0.48934        0.03014
C         -0.35696        0.66820        0.03699
C          1.01068        0.37743       -0.60461
N          1.79384        1.59891       -0.38796
C          1.69618       -0.84216        0.01504
C          3.15093       -1.06064       -0.43483
C          4.19310       -0.46866        0.51910
C          5.62105       -0.64284        0.00927
O         -0.18480        1.02138        1.38906
O         -0.89629        1.73831       -0.70304
H         -5.18537        0.76701        0.31825
H         -5.92304       -0.85856        0.72957
H         -4.81622       -1.84977       -1.33492
H         -4.09325       -0.20712       -1.70897
H         -3.62456       -1.85307        0.86915
H         -2.52790        0.31741        1.46742
H         -0.97862       -1.31955        0.64729
H         -1.48267       -0.85044       -0.99696
H          0.83250        0.18120       -1.67527
H          1.32739        2.36100       -0.87430
H          2.71839        1.50544       -0.79658
H          1.65479       -0.74589        1.10749
H          1.10021       -1.72500       -0.24671
H          3.29792       -0.65145       -1.44711
H          3.34722       -2.13679       -0.52728
H          4.08744       -0.95923        1.49617
H          3.98164        0.59315        0.69747
H          5.76556       -0.12796       -0.94842
H          6.35299       -0.24113        0.71791
H          5.85507       -1.70251       -0.14897
H          0.58342        1.62035        1.38733
H         -1.83570        1.75744       -0.44701
