61
omegapdb_1v2k_18.log	Energy: -1425429.0019749
N          9.45520       -2.08762       -0.71517
C          8.41867       -2.77414       -0.23002
C          7.20430       -2.22421        0.15105
C          7.01173       -0.83405        0.04079
C          8.09873       -0.10450       -0.47822
C          9.26266       -0.77154       -0.82686
N          5.84281       -0.20430        0.40901
C          5.56992        1.13681       -0.10094
C          4.08748        1.48058       -0.00208
C          3.62307        1.34734        1.45488
C          3.98630       -0.04419        2.03457
C          4.76125       -0.92992        1.05218
C          2.18420        1.82476        1.67210
O          1.99712        2.90911        2.20526
N          1.12592        1.04265        1.27381
C         -0.22756        1.53552        1.48077
C         -0.92883        1.75540        0.14556
N         -0.89201        0.50221       -0.62016
C          0.47852        0.03594       -0.86518
C          1.17010       -0.17187        0.47940
S         -1.86373        0.50123       -1.99354
O         -1.78235        1.78484       -2.67873
O         -1.55710       -0.73450       -2.69595
C         -3.48902        0.37834       -1.28519
C         -3.91957       -0.83713       -0.82412
C         -5.21602       -0.95791       -0.26658
C         -6.04918        0.18987       -0.20122
C         -5.56762        1.42860       -0.70392
C         -4.31293        1.52775       -1.24147
C         -7.34869        0.07071        0.36006
C         -7.77829       -1.13968        0.82659
C         -6.95849       -2.29420        0.76522
C         -5.70613       -2.19797        0.22776
Cl        -9.36587       -1.29078        1.51551
H          8.56062       -3.85119       -0.14408
H          6.41990       -2.88654        0.49934
H          8.05583        0.97323       -0.58931
H         10.10254       -0.20013       -1.22124
H          5.89160        1.20034       -1.14879
H          6.14823        1.88699        0.46086
H          3.51462        0.83608       -0.67971
H          3.93976        2.51048       -0.34429
H          4.18562        2.10006        2.01474
H          3.09628       -0.58916        2.36947
H          4.60623        0.10050        2.92478
H          4.08522       -1.38102        0.30500
H          5.18916       -1.75890        1.61986
H         -0.16149        2.47020        2.03750
H         -0.79058        0.79973        2.07030
H         -1.97366        2.03010        0.32440
H         -0.44549        2.57084       -0.41162
H          1.04535        0.76944       -1.46162
H          0.43066       -0.90427       -1.41797
H          0.65848       -0.97742        1.02465
H          2.19778       -0.48585        0.30667
H         -3.27363       -1.70909       -0.89274
H         -6.21648        2.30011       -0.66358
H         -3.93899        2.46184       -1.64965
H         -7.99495        0.94221        0.41425
H         -7.33873       -3.23701        1.14537
H         -5.06692       -3.07587        0.17258
