44
omegacsd_CUHNEY10_07.log	Energy: -1049279.0998696
Cl         3.96057        3.11607       -0.55803
C          2.31452        2.59729       -0.39250
C          1.88654        1.43150       -1.00946
N          0.64047        0.97722       -0.89774
C         -0.23048        1.67340       -0.17010
N         -1.51083        1.09924       -0.08745
C         -2.63565        1.67001        0.50946
O         -2.71249        2.75240        1.04301
C         -3.72168        0.65616        0.32620
N         -4.98366        0.76146        0.72312
C         -5.71819       -0.31129        0.42774
C         -5.19644       -1.43333       -0.23138
N         -3.92396       -1.52205       -0.62399
C         -3.20836       -0.44534       -0.33030
C         -1.74724       -0.24001       -0.63440
O         -0.94907       -1.17732        0.04875
C         -0.11242       -1.92357       -0.74604
O         -0.31220       -2.11389       -1.92627
N          0.91002       -2.42205       -0.00790
C          1.23347       -1.87651        1.31456
C          2.53259       -2.51826        1.79948
N          3.66136       -2.33230        0.89377
C          3.29110       -2.43482       -0.51887
C          1.96415       -3.15956       -0.69846
C          4.43163       -1.13199        1.14916
C          0.10105        2.87205        0.47680
C          1.40165        3.33166        0.35776
H          2.57046        0.84222       -1.61728
H         -6.76420       -0.28908        0.72436
H         -5.83596       -2.28634       -0.44649
H         -1.52249       -0.28798       -1.70268
H          1.34625       -0.78560        1.25097
H          0.42059       -2.08448        2.01780
H          2.36298       -3.59151        1.95595
H          2.79526       -2.10019        2.77618
H          3.17834       -1.43121       -0.96927
H          4.08392       -2.95124       -1.07651
H          2.02666       -4.18416       -0.31217
H          1.69399       -3.21156       -1.75376
H          5.31558       -1.12452        0.50175
H          4.78006       -1.12203        2.18698
H          3.87210       -0.19453        0.95768
H         -0.64273        3.41230        1.04663
H          1.70816        4.25215        0.84567
