41
omegacsd_CEJTIU_08.log	Energy: -611027.7780956
C         -5.32807        1.30254        0.87779
N         -4.83861        0.46910       -0.20024
C         -5.81912       -0.28868       -0.94839
C         -3.54962       -0.04870       -0.09635
C         -3.10269       -1.07840       -0.94192
C         -1.80932       -1.57144       -0.84620
C         -0.91228       -1.06929        0.09328
C         -1.33821       -0.04991        0.94394
C         -2.63327        0.44136        0.85095
N          0.40475       -1.58841        0.10401
C          1.32982       -1.45732        1.09894
O          1.12381       -1.01254        2.20787
N          2.60661       -1.96930        0.73968
C          3.45730       -1.56006       -0.28638
O          4.62557       -1.88932       -0.25202
C          2.92210       -0.64626       -1.37950
C          2.68458        0.75576       -0.84764
C          3.72914        1.44267       -0.22405
C          3.53149        2.72574        0.27212
C          2.28600        3.33768        0.15199
C          1.24186        2.65984       -0.46779
C          1.44117        1.37489       -0.96611
H         -4.73385        2.21909        0.96256
H         -6.35548        1.60138        0.65870
H         -5.31502        0.79349        1.85498
H         -5.53519       -0.36109       -2.00430
H         -6.77904        0.23050       -0.90681
H         -5.95978       -1.31049       -0.56000
H         -3.76326       -1.51017       -1.68547
H         -1.50021       -2.37163       -1.51759
H         -0.66174        0.34565        1.69167
H         -2.92592        1.22391        1.54222
H          0.63569       -2.23315       -0.63650
H          3.13375       -2.26507        1.55352
H          3.69931       -0.63921       -2.14832
H          2.00685       -1.03490       -1.83259
H          4.70033        0.96090       -0.12522
H          4.35227        3.24872        0.75628
H          2.13065        4.33951        0.54407
H          0.26446        3.12598       -0.56274
H          0.61664        0.84927       -1.44348
