40
omegapdb_2byh_16.log	Energy: -1016183.3509334
O          6.76527       -2.46643       -0.75582
C          6.69726       -1.35877       -0.25757
C          7.93471       -0.68470        0.30013
C          5.39181       -0.63464       -0.17832
C          5.26026        0.63769        0.38332
C          4.02407        1.26065        0.43289
C          2.88524        0.62495       -0.07803
C          3.00569       -0.65064       -0.64539
C          4.25073       -1.25842       -0.68781
N          1.67268        1.32518       -0.00077
C          0.40025        0.87527       -0.29483
O          0.15210       -0.25675       -0.67118
C         -0.64316        1.91085       -0.11699
C         -0.53967        3.32017       -0.20578
N         -1.70981        3.91445       -0.05131
N         -2.56607        2.89953        0.13807
C         -1.99260        1.67557        0.10544
C         -2.78834        0.44988        0.26779
C         -3.96235        0.27274       -0.46370
C         -4.73082       -0.87419       -0.34353
Cl        -6.17865       -1.06112       -1.27612
C         -4.32284       -1.89293        0.52215
O         -5.08614       -3.00360        0.60896
C         -3.15644       -1.72450        1.26739
C         -2.39562       -0.56538        1.15070
O         -1.28903       -0.35703        1.90278
H          8.12354        0.26854       -0.20605
H          8.78832       -1.34833        0.15475
H          7.81504       -0.47455        1.36893
H          6.12560        1.15477        0.79005
H          3.93542        2.25162        0.87470
H          2.12732       -1.14501       -1.03741
H          4.36255       -2.24610       -1.12604
H          1.72877        2.23736        0.42828
H          0.33697        3.92294       -0.41427
H         -3.53511        3.10349        0.33280
H         -4.27285        1.03391       -1.17456
H         -4.67309       -3.62935        1.21750
H         -2.84703       -2.50462        1.96192
H         -1.00267       -1.19079        2.29631
