45
omegacsd_FABSOQ10_11.log	Energy: -924265.5479255
S          0.45325       -1.89266       -0.89382
C          1.27121       -1.59111        0.59559
C          0.43412       -1.02565        1.51076
C         -0.88477       -0.82082        1.00195
C         -1.02978       -1.22863       -0.29187
C         -2.27512       -1.27135       -1.14754
O         -2.75627       -2.60495       -1.24593
C         -3.34449       -0.29741       -0.66827
C         -4.64938       -0.71829       -0.45727
C         -5.64517        0.17143       -0.04728
C         -5.33093        1.51348        0.14512
O         -6.21383        2.46839        0.54250
C         -7.54772        2.06975        0.76981
C         -4.02070        1.95414       -0.07948
C         -3.04648        1.05927       -0.48040
C          2.74096       -1.91172        0.77843
O          3.01237       -2.18348        2.13987
C          3.62159       -0.75720        0.33583
C          3.93877       -0.59522       -1.01527
C          4.70543        0.47433       -1.44325
C          5.18005        1.40907       -0.51762
O          5.92907        2.42162       -1.03257
C          6.42769        3.38706       -0.13359
C          4.87617        1.25541        0.83396
C          4.09710        0.17516        1.24781
H          0.75632       -0.75079        2.50976
H         -1.69237       -0.37192        1.57126
H         -2.00759       -1.00961       -2.17886
H         -2.80365       -2.94968       -0.34311
H         -4.90229       -1.75971       -0.63274
H         -6.65335       -0.19839        0.10855
H         -7.61234        1.31816        1.56750
H         -8.00793        1.66691       -0.14185
H         -8.08408        2.96883        1.07727
H         -3.79658        3.00638        0.06927
H         -2.03198        1.41631       -0.64599
H          2.98911       -2.78767        0.15626
H          2.36666       -2.83956        2.43288
H          3.58117       -1.31856       -1.74697
H          4.95753        0.60793       -2.49103
H          6.99234        4.09943       -0.73729
H          7.09526        2.93632        0.61250
H          5.61452        3.91393        0.38286
H          5.23686        1.96253        1.57373
H          3.86824        0.04898        2.30169
