40
omegapdb_2byh_02.log	Energy: -1016188.1939448
O         -6.64147       -0.56813        0.13173
C         -5.79872        0.20797       -0.27668
C         -6.19337        1.58141       -0.78174
C         -4.35231       -0.17108       -0.29126
C         -3.34707        0.68357       -0.75056
C         -2.02167        0.28086       -0.73759
C         -1.67074       -0.99167       -0.26913
C         -2.66929       -1.85801        0.19278
C         -3.98987       -1.43614        0.17685
N         -0.30710       -1.32255       -0.29126
C          0.32644       -2.39942        0.29133
O         -0.26306       -3.33144        0.81097
C          1.80801       -2.38046        0.21314
C          2.57562       -3.56587        0.27137
N          3.86625       -3.32849        0.13016
N          3.94393       -1.99677        0.00560
C          2.74878       -1.36437        0.04606
C          2.64046        0.10610       -0.01238
C          1.69632        0.78042        0.76502
C          1.55098        2.15660        0.69607
Cl         0.34539        2.96745        1.65559
C          2.37554        2.91750       -0.13962
O          2.28837        4.25551       -0.25061
C          3.34616        2.26373       -0.89519
C          3.48098        0.88346       -0.83142
O          4.43721        0.23247       -1.54811
H         -5.90830        1.70746       -1.83229
H         -7.27437        1.69106       -0.68432
H         -5.69411        2.36887       -0.20615
H         -3.58958        1.67675       -1.11974
H         -1.24446        0.95991       -1.08558
H         -2.39820       -2.83975        0.55694
H         -4.77789       -2.09471        0.53072
H          0.28943       -0.65130       -0.75329
H          2.20280       -4.57347        0.39758
H          4.83762       -1.56232       -0.16718
H          1.05700        0.21862        1.43923
H          1.59323        4.58088        0.34204
H          3.99187        2.86440       -1.53070
H          4.91593        0.86659       -2.09784
