66
omegapdb_1z1r_14.log	Energy: -1302678.4579862
C          0.31525       -0.92946       -0.12512
C         -0.00491       -2.30531       -0.75964
C         -1.37944       -2.77649       -0.35920
C         -2.39356       -2.86040       -1.31121
C         -3.72457       -2.99209       -0.92942
C         -4.05309       -3.00820        0.42163
C         -3.04422       -3.05434        1.38294
C         -1.71631       -2.94955        0.98722
O         -5.36929       -2.88569        0.79658
C         -5.65532       -1.56285        1.27086
C         -5.51916       -0.50933        0.17058
C         -5.44864        0.92405        0.71147
C         -4.20726        1.18931        1.54339
O         -4.24211        1.22888        2.76170
N         -2.97927        1.35738        0.91639
C         -2.64682        1.56038       -0.48165
C         -1.39547        0.76066       -0.91779
O         -0.92634        0.96598       -2.03786
N         -0.86327       -0.05835        0.00754
C         -2.39199        3.03258       -0.82722
C         -3.67337        3.84809       -0.87204
O         -4.73931        3.36866       -1.22615
N         -3.54422        5.15454       -0.52929
C          1.49443       -0.21638       -0.82617
O          1.44641       -0.30233       -2.22941
C          2.82490       -0.83353       -0.40859
N          3.87994       -0.13781       -1.13807
S          5.44115       -0.66579       -0.91144
O          5.45614       -2.07045       -0.52351
O          6.17921       -0.19634       -2.07243
C          5.94578        0.27254        0.51220
C          6.09871       -0.36872        1.73505
C          6.49834        0.37669        2.84197
C          6.74200        1.73971        2.71161
C          6.59206        2.36870        1.47564
C          6.19294        1.63555        0.36637
H          0.62355       -1.09584        0.91517
H          0.77461       -3.01238       -0.45042
H          0.06215       -2.21026       -1.84714
H         -2.14706       -2.75349       -2.36556
H         -4.52466       -2.99458       -1.66449
H         -3.31208       -3.12463        2.43404
H         -0.93371       -2.94230        1.74558
H         -6.68065       -1.60457        1.64871
H         -4.99617       -1.32077        2.11655
H         -6.36097       -0.59498       -0.52555
H         -4.61450       -0.71614       -0.41157
H         -6.28899        1.12161        1.38389
H         -5.50367        1.63765       -0.11607
H         -2.28592        1.67005        1.58751
H         -3.48243        1.21235       -1.09677
H         -1.46960       -0.25535        0.79388
H         -1.93478        3.07361       -1.82174
H         -1.67168        3.46161       -0.11848
H         -2.65756        5.56811       -0.29230
H         -4.34877        5.75473       -0.63028
H          1.49285        0.83670       -0.50349
H          0.64202        0.18725       -2.49318
H          2.83588       -1.91181       -0.61546
H          2.98417       -0.68683        0.66628
H          3.67346       -0.08075       -2.13422
H          5.91879       -1.43751        1.80334
H          6.62570       -0.11155        3.80422
H          7.05730        2.31770        3.57653
H          6.79238        3.43203        1.37690
H          6.08022        2.10334       -0.60748
