39
omegacsd_FIBREN_09.log	Energy: -667547.1221598
N         -2.44130       -1.13633        1.78101
C         -1.16415       -0.85328        2.04635
N         -0.27509       -0.25439        1.23094
C         -0.65621        0.11789        0.00463
C         -1.98727       -0.13221       -0.37894
C         -2.77767       -0.74807        0.56046
O         -4.01153       -0.90330        0.00562
C         -3.88728       -0.36448       -1.25019
N         -2.72049        0.10543       -1.53776
C         -5.10251       -0.39437       -2.10318
N          0.20465        0.73439       -0.83967
C          1.64347        0.91685       -0.63840
C          1.92793        1.82687        0.56237
C          1.28294        3.18576        0.43555
O          0.74669        3.79227        1.32908
O          1.39567        3.69910       -0.81132
C          2.42118       -0.39421       -0.61480
C          2.89929       -0.90605       -1.82260
C          3.61019       -2.10084       -1.86433
C          3.85869       -2.80024       -0.68764
C          3.39039       -2.29742        0.52241
C          2.67534       -1.10414        0.56032
C         -0.63989       -1.24702        3.39827
H         -5.42655       -1.42553       -2.27482
H         -5.92547        0.13979       -1.61853
H         -4.87658        0.07816       -3.05984
H         -0.15984        0.91278       -1.76363
H          1.96673        1.46178       -1.53037
H          3.01192        1.97465        0.64510
H          1.56621        1.38572        1.49134
H          0.96700        4.57013       -0.77612
H          2.71565       -0.35859       -2.74620
H          3.97577       -2.48119       -2.81483
H          4.41647       -3.73295       -0.71322
H          3.58058       -2.83812        1.44625
H          2.29420       -0.73389        1.50675
H         -1.43669       -1.68762        3.99936
H          0.17370       -1.97181        3.28570
H         -0.23095       -0.37179        3.91269
