57
omegacsd_SPIRIL_11.log	Energy: -797192.3950198
C          2.60244       -0.81017        1.53884
C          3.26693       -1.02782        0.15322
C          3.53825       -2.52536       -0.06114
O          2.75300       -3.43221        0.12108
N          4.80997       -2.64406       -0.52238
C          5.54598       -1.40976       -0.56179
N          4.62171       -0.46770        0.04272
C          4.95360        0.88384        0.04178
C          4.05664        1.88053        0.46587
C          4.43162        3.21725        0.47937
C          5.70330        3.61451        0.07880
C          6.59872        2.63761       -0.33812
C          6.23757        1.29530       -0.36061
C          2.33498       -0.55553       -0.98501
C          0.90924       -1.09994       -0.85676
N          0.40939       -1.03367        0.51307
C         -1.02581       -0.89946        0.62165
C         -1.60210        0.49904        0.30408
C         -3.10137        0.51417        0.41703
C         -3.98373        0.30189       -0.56893
C         -5.44782        0.29990       -0.28528
C         -5.95582       -0.22043        0.91134
C         -7.31731       -0.20981        1.18790
C         -8.18358        0.32109        0.24590
C         -7.72662        0.83069       -0.95808
C         -6.36074        0.81040       -1.21586
F         -9.50481        0.33073        0.50260
C         -3.57896        0.07776       -2.00727
C          1.19041       -0.23190        1.42917
H          2.51648       -1.78169        2.03472
H          3.23922       -0.17078        2.15818
H          5.21725       -3.54667       -0.70900
H          6.47795       -1.47863        0.01816
H          5.80782       -1.12858       -1.59658
H          3.05818        1.61849        0.79317
H          3.70921        3.95857        0.81268
H          5.98876        4.66226        0.09285
H          7.60098        2.91559       -0.65573
H          6.97295        0.56943       -0.69223
H          2.75589       -0.86022       -1.95102
H          2.31839        0.53923       -0.98624
H          0.27383       -0.51941       -1.54827
H          0.87922       -2.14491       -1.19006
H         -1.32593       -1.18343        1.64006
H         -1.48760       -1.63450       -0.05086
H         -1.18197        1.22754        1.00932
H         -1.27757        0.81516       -0.69419
H         -3.49337        0.69355        1.41862
H         -5.27221       -0.66322        1.63099
H         -7.71459       -0.61933        2.11141
H         -8.43602        1.23363       -1.67416
H         -6.00132        1.21415       -2.15893
H         -3.75514        0.97307       -2.61727
H         -2.52076       -0.17804       -2.10235
H         -4.16340       -0.73542       -2.45113
H          1.21911        0.84358        1.16044
H          0.71152       -0.28302        2.41478
