44
omegacsd_CUHNEY10_05.log	Energy: -1049278.8651246
Cl        -3.43749        3.84240        0.52454
C         -1.89714        3.06863        0.33836
C         -1.67121        1.82081        0.89915
N         -0.50928        1.18286        0.78027
C          0.47490        1.76570        0.09919
N          1.65822        1.00968        0.02545
C          2.85283        1.40475       -0.57831
O          3.07773        2.44914       -1.14504
C          3.79332        0.26265       -0.35245
N          5.05825        0.18317       -0.74603
C          5.64229       -0.96641       -0.40756
C          4.97472       -1.98321        0.28986
N          3.70166       -1.88597        0.67854
C          3.13688       -0.73477        0.34179
C          1.71482       -0.32690        0.62748
O          0.80873       -1.18998       -0.01569
C         -0.14937       -1.74211        0.80246
O         -0.01399       -1.86674        2.00073
N         -1.22072       -2.16254        0.09350
C         -2.30859       -2.78620        0.84418
C         -3.27615       -3.42345       -0.14852
N         -3.85575       -2.46977       -1.09645
C         -2.96085       -1.35682       -1.39928
C         -1.50015       -1.77059       -1.28650
C         -5.16718       -1.98871       -0.71313
C          0.34506        3.02631       -0.50042
C         -0.86854        3.67989       -0.37115
H         -2.45094        1.31621        1.46636
H          6.68180       -1.09617       -0.69934
H          5.49372       -2.90606        0.53854
H          1.48471       -0.29744        1.69557
H         -1.88902       -3.53531        1.52147
H         -2.81974       -2.03744        1.46663
H         -4.08652       -3.91604        0.39803
H         -2.74339       -4.21020       -0.69967
H         -3.12187       -0.50582       -0.70846
H         -3.16509       -0.98936       -2.41310
H         -1.28490       -2.59695       -1.97638
H         -0.85378       -0.93415       -1.55312
H         -5.85793       -2.82984       -0.59657
H         -5.16433       -1.40384        0.22737
H         -5.56092       -1.34086       -1.50429
H          1.17308        3.46527       -1.04011
H         -1.01768        4.65829       -0.81814
