57
omegacsd_SPIRIL_12.log	Energy: -797193.1091319
C         -2.35846       -0.36532       -0.95752
C         -3.25180       -0.90619        0.17924
C         -3.38218       -2.42510       -0.01612
O         -2.51852       -3.25330        0.18485
N         -4.63267       -2.66559       -0.48825
C         -5.48182       -1.50661       -0.53950
N         -4.65144       -0.47595        0.05592
C         -5.11219        0.83700        0.04806
C         -4.31469        1.92043        0.45817
C         -4.82086        3.21339        0.46760
C         -6.12871        3.47986        0.07557
C         -6.92554        2.41641       -0.32975
C         -6.43307        1.11671       -0.34784
C         -2.61492       -0.60578        1.56080
C         -1.26250        0.09735        1.44558
N         -0.39162       -0.65497        0.56354
C          0.99625       -0.24586        0.62437
C          1.94447       -1.30311        0.04484
C          3.38436       -0.90336        0.21672
C          4.13964       -0.21546       -0.65111
C          5.55827        0.11112       -0.32590
C          6.14509        1.30033       -0.77509
C          7.46148        1.62389       -0.46617
C          8.20302        0.73735        0.29623
C          7.66845       -0.45870        0.74751
C          6.35179       -0.76408        0.42668
F          9.47980        1.03932        0.59690
C          3.62183        0.29143       -1.97600
C         -0.88740       -0.77046       -0.81055
H         -2.73731       -0.72329       -1.92275
H         -2.44770        0.72552       -0.97700
H         -4.95521       -3.60464       -0.66043
H         -5.76817       -1.26083       -1.57673
H         -6.40382       -1.65811        0.04073
H         -3.29246        1.76019        0.77809
H         -4.17290        4.02478        0.79074
H         -6.51769        4.49380        0.08704
H         -7.95268        2.59193       -0.64082
H         -7.09481        0.31900       -0.66953
H         -2.44212       -1.55635        2.07451
H         -3.30795       -0.01588        2.16840
H         -0.79900        0.12635        2.43804
H         -1.37918        1.15540        1.13201
H          1.25878       -0.08043        1.67696
H          1.16945        0.71686        0.09902
H          1.70838       -1.47394       -1.01144
H          1.75145       -2.24917        0.56363
H          3.82730       -1.16419        1.17846
H          5.56354        1.99929       -1.37025
H          7.91562        2.54908       -0.80694
H          8.28611       -1.13803        1.32663
H          5.93588       -1.71493        0.74908
H          4.33803        0.09059       -2.78056
H          2.66647       -0.16574       -2.24432
H          3.46176        1.37666       -1.94826
H         -0.75534       -1.80366       -1.15149
H         -0.29926       -0.12361       -1.48718
