34
omegapdb_2f7p_22.log	Energy: -719052.8174102
C         -1.04164       -0.05582       -0.81307
N          0.26918        0.03492       -0.19509
C          1.39338       -0.33947       -1.03975
C          2.71706       -0.02380       -0.37478
C          2.89293        1.17116        0.32577
C          4.11889        1.47597        0.90607
C          5.18748        0.58898        0.79492
C          5.01935       -0.60590        0.10364
C          3.78907       -0.90891       -0.47420
C         -1.69846       -1.47549       -0.78351
O         -0.79967       -2.55668       -0.73665
C         -2.57680       -1.45823        0.46015
O         -1.75162       -1.48859        1.60597
C         -3.23371       -0.08321        0.34832
O         -3.82806        0.24262        1.58579
C         -2.04846        0.82287       -0.02343
S         -2.64924        2.33440       -0.83571
H         -0.94925        0.30192       -1.84534
H          0.26776       -0.53468        0.64881
H          1.39090       -1.40285       -1.32974
H          1.31216        0.24194       -1.96987
H          2.04945        1.85000        0.42027
H          4.24237        2.41021        1.44878
H          6.14511        0.82618        1.25162
H          5.84392       -1.30963        0.01987
H          3.65819       -1.85077       -1.00453
H         -2.37556       -1.56641       -1.64908
H         -0.44222       -2.68637       -1.62315
H         -3.30594       -2.27989        0.47463
H         -2.27598       -1.08470        2.31484
H         -3.98746       -0.09681       -0.45545
H         -4.05392        1.18280        1.56857
H         -1.55787        1.11121        0.90939
H         -1.53769        3.06510       -0.66423
