39
omegacsd_FIBREN_12.log	Energy: -667545.2248975
N         -2.03171        0.57658        1.98170
C         -0.73522        0.81423        1.75576
N         -0.05479        0.56352        0.62513
C         -0.68220        0.02028       -0.41927
C         -2.04872       -0.28068       -0.29063
C         -2.61328        0.03286        0.92456
O         -3.92686       -0.32259        0.85671
C         -4.07457       -0.83467       -0.40765
N         -3.00738       -0.83785       -1.13259
C         -5.43287       -1.31314       -0.77034
N          0.00497       -0.21255       -1.56270
C          1.45025       -0.06922       -1.70966
C          1.90333        1.39707       -1.90458
C          1.50574        2.41029       -0.85252
O          2.18995        2.78454        0.07143
O          0.29396        2.93705       -1.11135
C          2.22951       -0.88398       -0.67798
C          2.06749       -2.27120       -0.69787
C          2.76998       -3.08574        0.18128
C          3.65430       -2.51875        1.09537
C          3.81940       -1.13863        1.12258
C          3.11033       -0.32212        0.24396
C          0.07046        1.41680        2.87081
H         -6.15534       -0.49220       -0.72682
H         -5.40724       -1.71919       -1.78232
H         -5.76507       -2.08954       -0.07447
H         -0.52075       -0.61841       -2.32119
H          1.66268       -0.54083       -2.67660
H          1.48450        1.74195       -2.85479
H          2.99394        1.41438       -1.98288
H          0.10678        3.54700       -0.37869
H          1.37667       -2.71907       -1.41110
H          2.63104       -4.16355        0.14914
H          4.21050       -3.15102        1.78288
H          4.50104       -0.68608        1.83851
H          3.22937        0.75611        0.30229
H          0.69155        0.64105        3.33278
H         -0.58642        1.84177        3.63193
H          0.74930        2.17733        2.47338
