46
omegacsd_CDBMPI10_10.log	Energy: -649534.9933800
O         -2.72945        2.15727        0.10859
C         -2.47959        0.99192       -0.16849
N         -1.30597        0.63319       -0.80520
C         -0.47584       -0.56668       -0.58110
C          0.70038       -0.17966        0.33006
N          1.46265        0.93570       -0.20906
C          0.67259        2.14442       -0.47243
C         -0.50940        1.73403       -1.35269
C          0.27884        2.87568        0.80931
C          2.82011        1.08811       -0.05324
O          3.35075        2.19000       -0.06569
C          3.66972       -0.14925        0.06240
C          3.49209       -1.25650       -0.76925
C          4.36098       -2.33988       -0.68928
C          5.40798       -2.32548        0.22801
C          5.59685       -1.21722        1.05000
C          4.73935       -0.12716        0.95705
C         -1.14593       -1.80799       -0.00365
C         -3.54450       -0.04252        0.05872
C         -3.98425       -0.86057       -0.98166
C         -5.05512       -1.72650       -0.78471
C         -5.68312       -1.78501        0.45638
C         -5.25701       -0.95631        1.49180
C         -4.20375       -0.07239        1.28709
H         -0.05655       -0.82904       -1.56400
H          1.35756       -1.03885        0.46604
H          0.29275        0.08113        1.31975
H          1.31663        2.80374       -1.06044
H         -1.17206        2.58494       -1.51215
H         -0.11955        1.39752       -2.32262
H          1.18370        3.15302        1.35805
H         -0.36347        2.26627        1.45246
H         -0.28284        3.78300        0.56865
H          2.68429       -1.25874       -1.49854
H          4.22447       -3.19321       -1.34859
H          6.08460       -3.17369        0.29421
H          6.42088       -1.19845        1.75842
H          4.89334        0.75866        1.56687
H         -1.91604       -2.21453       -0.65916
H         -0.37291       -2.57389        0.12286
H         -1.59804       -1.61957        0.97481
H         -3.48989       -0.80767       -1.94914
H         -5.40095       -2.35529       -1.60111
H         -6.51326       -2.46891        0.61379
H         -5.75592       -0.98986        2.45678
H         -3.88612        0.60674        2.07387
