41
omegacsd_CEJTIU_05.log	Energy: -611038.6746105
C          6.63947       -1.52213        0.28046
N          6.10013       -0.20511        0.02164
C          6.77930        0.44830       -1.08530
C          4.69236       -0.07963        0.04510
C          3.83320       -1.17578        0.15606
C          2.44879       -1.02295        0.21896
C          1.88532        0.24777        0.15470
C          2.73425        1.35434        0.04289
C          4.10672        1.19530       -0.00274
N          0.49804        0.50842        0.20428
C         -0.49886       -0.40342        0.27937
O         -0.39467       -1.61544        0.32026
N         -1.80702        0.15446        0.31433
C         -2.20539        1.46347        0.28024
O         -1.43206        2.40882        0.20933
C         -3.70883        1.70780        0.38574
C         -4.60661        0.54184        0.05115
C         -4.94469        0.26936       -1.27711
C         -5.74539       -0.82153       -1.59578
C         -6.21781       -1.65922       -0.58844
C         -5.88674       -1.39875        0.73708
C         -5.08627       -0.30391        1.05352
H          6.22673       -1.92228        1.21107
H          6.44081       -2.24569       -0.53104
H          7.72453       -1.43958        0.39979
H          6.41161        1.46663       -1.22212
H          7.85135        0.50595       -0.86867
H          6.64679       -0.09430       -2.03781
H          4.23314       -2.18411        0.19049
H          1.80762       -1.89072        0.30495
H          2.30966        2.35600        0.00588
H          4.73832        2.07809       -0.05016
H          0.19708        1.48025        0.17719
H         -2.51800       -0.56523        0.34923
H         -3.88493        2.04808        1.41371
H         -3.91233        2.56693       -0.26044
H         -4.57688        0.92140       -2.06728
H         -6.00051       -1.01878       -2.63364
H         -6.84306       -2.51249       -0.83731
H         -6.25313       -2.04660        1.52902
H         -4.83582       -0.10021        2.09336
