24
omegapdb_1gs5_20.log	Energy: -441837.0933339
C          0.76672        0.66812       -0.53424
C          0.58494        2.03407        0.11943
O          0.93397        2.28312        1.24532
O         -0.04172        2.95972       -0.62495
C         -0.59444        0.01629       -0.83625
C         -1.44564       -0.18358        0.41065
C         -2.79112       -0.80480        0.07810
O         -3.18387       -1.01105       -1.03811
O         -3.56476       -1.11251        1.14308
N          1.57845       -0.13364        0.34929
C          2.29037       -1.19091       -0.14178
O          2.15911       -1.57168       -1.29428
C          3.24977       -1.84198        0.83117
H          1.29926        0.79005       -1.48847
H         -0.23886        2.61126       -1.50666
H         -1.15654        0.60934       -1.56775
H         -0.39596       -0.94537       -1.31665
H         -0.91619       -0.82347        1.12849
H         -1.63240        0.77127        0.92415
H         -3.10817       -0.88596        1.96517
H          1.80527        0.28513        1.24204
H          3.18775       -2.92542        0.71061
H          4.27067       -1.53771        0.57959
H          3.05043       -1.57770        1.87352
