24
omegapdb_1gs5_07.log	Energy: -441844.5971894
C          0.78071        0.80279       -0.91375
C          0.99434        1.86679        0.18191
O          0.90392        3.03345       -0.11081
O          1.19205        1.46456        1.43226
C         -0.70757        0.42387       -1.02417
C         -1.37185       -0.10343        0.24553
C         -2.81295       -0.46325       -0.01140
O         -3.35824       -0.46972       -1.08984
O         -3.45216       -0.80233        1.12428
N          1.69833       -0.34680       -0.90648
C          1.91316       -1.25186        0.07304
O          1.41723       -1.16184        1.19972
C          2.80886       -2.41714       -0.27587
H          1.03099        1.34102       -1.82999
H          1.21192        0.47684        1.49171
H         -1.24025        1.32289       -1.35299
H         -0.81858       -0.31093       -1.82860
H         -1.34254        0.63413        1.05605
H         -0.86759       -0.99233        0.63897
H         -4.36159       -1.02438        0.86482
H          2.17470       -0.51148       -1.77974
H          2.21341       -3.33389       -0.23856
H          3.27515       -2.33531       -1.26103
H          3.58537       -2.49850        0.48820
