66
omegapdb_1z1r_26.log	Energy: -1302678.2608227
C          0.27562       -1.67169       -2.22787
C          1.59874       -2.47054       -2.25446
C          2.61200       -2.07097       -1.21450
C          2.48448       -2.50712        0.10755
C          3.34293       -2.05053        1.10077
C          4.34633       -1.13027        0.78339
C          4.52578       -0.73711       -0.54161
C          3.66544       -1.20906       -1.52636
O          5.21017       -0.61409        1.70757
C          4.67724       -0.15420        2.94539
C          4.16229        1.27992        2.88367
C          2.97014        1.51054        1.94721
C          3.38884        2.00612        0.56606
O          4.45629        2.56460        0.37943
N          2.47016        1.91979       -0.45436
C          1.35598        0.98870       -0.57404
C          1.13213        0.79715       -2.08723
O          1.49024        1.69084       -2.84496
N          0.42406       -0.25831       -2.59814
C          0.07164        1.54002        0.08919
C         -0.62223        2.61824       -0.72533
O         -1.72398        2.43712       -1.23248
N          0.04721        3.79441       -0.83095
C         -0.57668       -1.88718       -0.97172
O         -0.60617       -3.28262       -0.75476
C         -2.01348       -1.37360       -1.17930
N         -2.89518       -1.96655       -0.16567
S         -3.28053       -1.15470        1.23748
O         -3.84582       -2.15471        2.12456
O         -2.08223       -0.40514        1.58309
C         -4.57630       -0.01020        0.82997
C         -5.88927       -0.34638        1.15241
C         -6.91093        0.53166        0.80853
C         -6.61458        1.72255        0.14923
C         -5.29647        2.04515       -0.16276
C         -4.26228        1.18117        0.18089
H         -0.32543       -2.09018       -3.04523
H          1.33158       -3.52525       -2.14132
H          2.02914       -2.34703       -3.25579
H          1.68760       -3.20449        0.35870
H          3.22818       -2.41339        2.11812
H          5.31398       -0.02491       -0.76745
H          3.79887       -0.87262       -2.55357
H          5.50857       -0.21276        3.65390
H          3.88975       -0.82898        3.30431
H          4.97348        1.94579        2.57391
H          3.88084        1.55550        3.90758
H          2.33389        0.62097        1.87792
H          2.33231        2.30468        2.35932
H          2.82859        2.24142       -1.34790
H          1.60365        0.03374       -0.10266
H          0.32595       -0.09890       -3.59353
H         -0.65142        0.74348        0.26620
H          0.34699        1.94022        1.07093
H          1.04095        3.79947       -0.64180
H         -0.29604        4.44487       -1.52317
H         -0.13612       -1.38220       -0.09937
H         -1.29275       -3.42412       -0.08314
H         -2.37650       -1.72261       -2.15217
H         -2.05610       -0.27825       -1.18704
H         -3.68282       -2.49932       -0.51555
H         -6.09260       -1.27392        1.67917
H         -7.93934        0.28761        1.06010
H         -7.41668        2.40571       -0.11816
H         -5.06028        2.97482       -0.67256
H         -3.23576        1.44809       -0.05978
