35
omegacsd_DIAVER_08.log	Energy: -548603.2427239
N          3.81209        0.83523        0.98506
C          4.07468        0.59539       -0.30401
N          3.37742       -0.18765       -1.13847
C          2.32737       -0.82189       -0.61892
C          1.95314       -0.67990        0.73985
C          2.75232        0.17954        1.46745
C          0.78977       -1.42701        1.33826
C         -0.56481       -1.07758        0.74166
C         -0.92288        0.26551        0.56051
C         -2.15915        0.60920        0.02732
C         -3.06839       -0.40840       -0.33242
C         -2.71023       -1.73234       -0.15744
C         -1.46206       -2.07181        0.37165
O         -4.27321       -0.10566       -0.90764
C         -5.21391        0.48666       -0.02324
O         -2.57685        1.88245       -0.19718
C         -1.67877        2.92834        0.11121
N          1.64124       -1.65756       -1.45597
N          5.18473        1.19742       -0.82674
H          2.52967        0.35408        2.52225
H          0.94774       -2.50918        1.23344
H          0.76873       -1.22572        2.41762
H         -0.20452        1.03454        0.82895
H         -3.42340       -2.49594       -0.45523
H         -1.19828       -3.11910        0.50540
H         -5.43525       -0.18715        0.81526
H         -6.12353        0.64859       -0.60531
H         -4.84964        1.44472        0.36156
H         -0.75038        2.84098       -0.46676
H         -2.18961        3.85310       -0.16083
H         -1.43683        2.94742        1.18163
H          1.87433       -1.55533       -2.43315
H          0.66733       -1.83588       -1.25408
H          5.56483        1.96711       -0.29960
H          5.24837        1.23714       -1.83106
