44
omegacsd_CUHNEY10_08.log	Energy: -1049278.8650618
Cl         3.43691        3.84324       -0.52464
C          1.89672        3.06920       -0.33833
C          1.67092        1.82141       -0.89923
N          0.50909        1.18328       -0.78033
C         -0.47508        1.76589       -0.09905
N         -1.65826        1.00963       -0.02523
C         -2.85297        1.40454        0.57842
O         -3.07810        2.44888        1.14515
C         -3.79329        0.26230        0.35243
N         -5.05823        0.18269        0.74588
C         -5.64212       -0.96697        0.40731
C         -4.97436       -1.98364       -0.29009
N         -3.70127       -1.88625       -0.67866
C         -3.13664       -0.73500       -0.34179
C         -1.71463       -0.32686       -0.62739
O         -0.80838       -1.18984        0.01578
C          0.14955       -1.74212       -0.80239
O          0.01413       -1.86677       -2.00066
N          1.22088       -2.16273       -0.09348
C          2.30877       -2.78625       -0.84427
C          3.27641       -3.42357        0.14831
N          3.85602       -2.46999        1.09631
C          2.96104       -1.35719        1.39942
C          1.50036       -1.77096        1.28657
C          5.16736       -1.98873        0.71295
C         -0.34534        3.02640        0.50078
C          0.86814        3.68019        0.37143
H          2.45063        1.31700       -1.46663
H         -6.68163       -1.09687        0.69900
H         -5.49323       -2.90654       -0.53886
H         -1.48445       -0.29734       -1.69545
H          2.81987       -2.03736       -1.46663
H          1.88922       -3.53528       -1.52166
H          4.08676       -3.91605       -0.39837
H          2.74372       -4.21042        0.69940
H          3.16523       -0.98998        2.41336
H          3.12203       -0.50601        0.70884
H          0.85401       -0.93454        1.55332
H          1.28507       -2.59743        1.97632
H          5.56118       -1.34110        1.50425
H          5.85815       -2.82977        0.59603
H          5.16434       -1.40356       -0.22736
H         -1.17334        3.46515        1.04067
H          1.01718        4.65855        0.81854
