61
omegapdb_1v2k_04.log	Energy: -1425434.5994912
N          9.80286        1.60927       -0.14984
C          9.32231        0.38154        0.06160
C          7.97833        0.04451        0.08837
C          7.01142        1.04620       -0.12466
C          7.51061        2.34409       -0.34855
C          8.88052        2.55428       -0.34667
N          5.66563        0.77521       -0.11585
C          5.16860       -0.59099       -0.19305
C          3.81804       -0.61211       -0.90444
C          2.75082        0.17886       -0.11012
C          3.40886        1.34533        0.64451
C          4.67962        1.84405       -0.03795
C          2.05029       -0.76200        0.87639
O          2.37723       -0.80400        2.05424
N          1.06786       -1.58646        0.38634
C          0.42796       -2.53877        1.28268
C         -1.08741       -2.40828        1.19724
N         -1.49915       -2.55925       -0.20131
C         -0.87409       -1.59251       -1.10173
C          0.64306       -1.72808       -0.99592
S         -3.10773       -2.90384       -0.48254
O         -3.47939       -3.92766        0.47647
O         -3.23694       -3.09541       -1.91626
C         -3.99935       -1.42356       -0.05695
C         -4.29764       -0.51608       -1.03841
C         -4.96369        0.69168       -0.70609
C         -5.30560        0.94202        0.64791
C         -4.98801       -0.03109        1.63553
C         -4.35175       -1.19307        1.29707
C         -5.96685        2.15258        0.98381
C         -6.26557        3.05722        0.00323
C         -5.93492        2.81824       -1.35317
C         -5.29815        1.65747       -1.69345
Cl        -7.07271        4.54102        0.40835
H         10.06633       -0.39639        0.23219
H          7.69536       -0.97962        0.30632
H          6.84814        3.17836       -0.55241
H          9.26201        3.55950       -0.52527
H          5.87903       -1.19146       -0.76978
H          5.07551       -1.05070        0.80358
H          3.50881       -1.65294       -1.05718
H          3.94313       -0.16765       -1.89903
H          2.01498        0.58274       -0.81335
H          2.70330        2.17676        0.74740
H          3.65652        1.00819        1.65498
H          4.45431        2.25897       -1.03503
H          5.09456        2.66095        0.56114
H          0.77826       -2.33438        2.29449
H          0.71976       -3.56046        1.00336
H         -1.39582       -1.42669        1.59407
H         -1.56349       -3.19814        1.78214
H         -1.16998       -0.56148       -0.84251
H         -1.19559       -1.81193       -2.12212
H          0.93684       -2.71991       -1.36815
H          1.11650       -0.97847       -1.63014
H         -4.04577       -0.73191       -2.07387
H         -5.26988        0.15754        2.66856
H         -4.13701       -1.95422        2.04118
H         -6.23231        2.35358        2.01784
H         -6.19378        3.55977       -2.10224
H         -5.04205        1.46018       -2.73165
