24
omegapdb_1gs5_10.log	Energy: -441843.4461450
C         -0.53936        0.08905        0.35401
C          0.22987        1.39555        0.34466
O         -0.06884        2.36369       -0.31107
O          1.28783        1.36244        1.17234
C          0.17391       -1.03477       -0.42555
C          1.54157       -1.43681        0.11832
C          2.66904       -0.55031       -0.38688
O          2.55883        0.25536       -1.27309
O          3.86643       -0.74151        0.20839
N         -1.84387        0.35619       -0.20386
C         -2.90022       -0.45831        0.06245
O         -2.78076       -1.47135        0.73727
C         -4.22982       -0.02029       -0.51462
H         -0.66066       -0.23731        1.39436
H          1.78035        2.18778        1.02435
H          0.27688       -0.73065       -1.47184
H         -0.50463       -1.89105       -0.38044
H          1.54545       -1.43742        1.21647
H          1.77503       -2.46321       -0.19493
H          3.78754       -1.40677        0.90609
H         -1.94595        1.21597       -0.72507
H         -4.87985        0.30228        0.30428
H         -4.14128        0.79416       -1.23902
H         -4.70363       -0.88089       -0.99231
