16
Properties=species:S:1:pos:R:3:forces:R:3 energy=-10906.793913479578 stress="0.0 0.0 0.0 0.0 0.0 0.0 0.0 0.0 0.0" pbc="F F F"
C          7.54440      -21.30480        0.19080
H          6.64680      -20.70400        0.30260
C          7.51640      -22.68550        0.33210
H          6.58890      -23.20360        0.56080
C          8.70110      -23.39530        0.18280
H          8.71930      -24.47530        0.29620
C          9.86840      -22.69350       -0.11630
N          9.90540      -21.36470       -0.25780
C          8.76550      -20.69860       -0.09950
H          8.83180      -19.61810       -0.21620
C         11.18780      -23.41640       -0.28820
O         12.04960      -22.97160       -1.00970
C         11.38180      -24.70070        0.49550
H         10.80250      -25.51370        0.04060
H         11.04140      -24.59020        1.53010
H         12.44000      -24.96860        0.47480
