11
Properties=species:S:1:pos:R:3:forces:R:3 energy=-5940.51947561629 stress="0.0 0.0 0.0 0.0 0.0 0.0 0.0 0.0 0.0" pbc="F F F"
F         13.25590      -26.48530        0.01680
C         14.39440      -25.69100        0.00230
H         14.33530      -25.07460       -0.90190
H         14.35670      -25.02840        0.87450
C         15.66600      -26.54690       -0.00720
H         16.41710      -26.05060       -0.63340
H         16.08740      -26.57590        1.00480
C         15.42210      -27.97800       -0.47940
H         15.02560      -28.00000       -1.49980
H         14.69850      -28.47740        0.16910
H         16.35140      -28.55620       -0.46660
