17
Properties=species:S:1:pos:R:3:forces:R:3 energy=-11376.365792977269 stress="0.0 0.0 0.0 0.0 0.0 0.0 0.0 0.0 0.0" pbc="F F F"
O         19.61410      -10.07730        0.50630
C         18.82890      -12.11720       -0.47270
H         18.89070      -12.13520       -1.56600
H         17.84020      -11.77260       -0.16550
H         19.00940      -13.13960       -0.12380
C         19.87780      -11.18430        0.07200
N         21.66790      -12.91610        0.01390
C         23.03070      -12.88080        0.01140
H         23.62540      -13.78530        0.02800
C         23.47130      -11.58370       -0.00710
H         24.46080      -11.14750       -0.01270
N         22.35180      -10.79960       -0.01900
C         21.28580      -11.65130       -0.01940
C         22.33370       -9.34620       -0.00740
H         23.35730       -8.99650       -0.16010
H         21.94540       -8.96870        0.93930
H         21.70150       -8.97830       -0.81600
