15
Properties=species:S:1:pos:R:3:forces:R:3 energy=-12353.383959753175 stress="0.0 0.0 0.0 0.0 0.0 0.0 0.0 0.0 0.0" pbc="F F F"
C         12.22330      -15.84180       -0.57770
N         12.54960      -17.04350        0.06060
H         11.72810      -17.57460        0.31940
N         13.78780      -19.06960        0.16320
C         15.15380      -19.31670        0.08400
H         15.55400      -20.31750        0.16200
C         15.82180      -18.16290       -0.09030
H         16.85700      -17.88070       -0.19610
O         14.88510      -17.14940       -0.13100
C         13.71110      -17.78620        0.02990
O         11.05400      -15.52560       -0.63150
C         13.33220      -14.99280       -1.14320
H         13.84860      -15.51630       -1.95120
H         12.87530      -14.08010       -1.52650
H         14.08190      -14.75590       -0.38560
