14
Properties=species:S:1:pos:R:3:forces:R:3 energy=-19198.934296867126 stress="0.0 0.0 0.0 0.0 0.0 0.0 0.0 0.0 0.0" pbc="F F F"
O         21.64840       -4.09530        0.49390
C         20.86300       -6.13810       -0.46610
H         20.86690       -7.08980        0.07660
H         19.88770       -5.66140       -0.35520
H         21.05250       -6.36040       -1.52130
C         21.92270       -5.20100        0.07230
C         23.86670       -6.90980        0.01270
H         23.25750       -7.80930        0.02800
C         25.29230       -6.91160        0.00110
H         25.89990       -7.80960        0.00270
C         25.81120       -5.64930       -0.00780
H         26.85610       -5.36490       -0.01660
S         24.58850       -4.44760        0.01100
C         23.34150       -5.64510       -0.01570
