18
Properties=species:S:1:pos:R:3:forces:R:3 energy=-8899.774569097503 stress="0.0 0.0 0.0 0.0 0.0 0.0 0.0 0.0 0.0" pbc="F F F"
C          2.57420       -1.38790        1.50740
H          3.66470       -1.41390        1.60210
H          2.28580       -0.34800        1.31890
H          2.14120       -1.69870        2.46410
C          2.11800       -2.30750        0.38310
H          2.49610       -3.32250        0.51320
H          2.49930       -1.93420       -0.58120
N          0.66680       -2.42320        0.31750
C         -0.08090       -1.18710        0.20570
H         -1.09010       -1.37270       -0.16240
H         -0.15260       -0.66000        1.16630
H          0.41490       -0.51610       -0.50680
C          0.11200       -3.67560        0.26050
C         -1.40040       -3.75630        0.16770
H         -1.88760       -3.19780        0.97220
H         -1.76010       -3.36500       -0.78990
H         -1.67550       -4.80840        0.24030
O          0.79270       -4.69080        0.28870
