23
Properties=species:S:1:pos:R:3:forces:R:3 energy=-24888.669996433113 stress="0.0 0.0 0.0 0.0 0.0 0.0 0.0 0.0 0.0" pbc="F F F"
C          2.87210       -3.80790       -0.45250
H          2.87110       -4.85040       -0.14730
C          1.69600       -3.06720       -0.37760
H          0.77940       -3.51770       -0.00570
C          1.71410       -1.72960       -0.76410
S          0.25740       -0.70690       -0.71090
N         -0.97810       -1.84520       -0.69170
C         -1.28200       -2.39460       -2.01140
H         -0.41470       -2.93540       -2.40120
H         -1.56990       -1.61530       -2.72730
H         -2.10100       -3.11050       -1.89630
C         -2.16140       -1.42750        0.06250
H         -1.84460       -1.06440        1.04060
H         -2.79470       -2.30840        0.19850
H         -2.73570       -0.64100       -0.44770
C          2.87740       -1.13470       -1.24280
H          2.85240       -0.09860       -1.56910
C          4.04710       -1.88320       -1.31260
H          4.96090       -1.42490       -1.68020
C          4.04500       -3.21880       -0.91790
H          4.96000       -3.80330       -0.97420
O          0.20990        0.05500       -1.95360
O          0.22260       -0.00830        0.56790
