18
Properties=species:S:1:pos:R:3:forces:R:3 energy=-8457.015574565783 stress="0.0 0.0 0.0 0.0 0.0 0.0 0.0 0.0 0.0" pbc="F F F"
C          5.51960      -23.17730       -0.06110
C          6.81850      -22.39080       -0.04630
H          6.64070      -21.42090       -0.52690
C          8.00450      -23.07670       -0.72010
H          7.76300      -23.35730       -1.75060
H          8.30510      -23.98360       -0.18520
H          8.87110      -22.40810       -0.74570
H          7.08330      -22.15940        0.99590
C          4.30180      -22.49210       -0.06020
H          4.30570      -21.40310       -0.06550
C          3.08900      -23.17300       -0.05150
H          2.15490      -22.61540       -0.05040
C          3.07220      -24.56430       -0.04590
H          2.12750      -25.10210       -0.03920
C          4.27610      -25.26010       -0.04960
H          4.27740      -26.34780       -0.04710
C          5.48680      -24.57370       -0.05860
H          6.41510      -25.14050       -0.06590
