11
Properties=species:S:1:pos:R:3:forces:R:3 energy=-7300.758667469909 stress="0.0 0.0 0.0 0.0 0.0 0.0 0.0 0.0 0.0" pbc="F F F"
C         -0.96230       -2.95390        1.41730
H         -1.11600       -2.14710        2.13680
H         -1.16450       -2.58050        0.40530
O          0.39520       -3.35240        1.55500
C          0.82800       -4.33550        0.70380
H         -1.65490       -3.77420        1.64710
C          0.24910       -5.70410        0.97680
H          0.24320       -5.90500        2.05240
H         -0.78280       -5.76850        0.61060
O          1.65940       -4.10770       -0.13150
H          0.84950       -6.45200        0.45660
