14
Properties=species:S:1:pos:R:3:forces:R:3 energy=-7010.131005791851 stress="0.0 0.0 0.0 0.0 0.0 0.0 0.0 0.0 0.0" pbc="F F F"
C          0.03440       -0.03810       -0.01420
H          0.06810       -0.64950        0.89810
H          0.03100       -0.73050       -0.86500
C         -1.23500        0.81260       -0.00440
H         -1.21310        1.47870        0.86910
H         -1.22970        1.46300       -0.88860
C         -2.50910       -0.02550        0.02200
H         -2.54320       -0.66470        0.91250
H         -3.40460        0.60450        0.02870
H         -2.56640       -0.67930       -0.85630
C          1.30340        0.78920       -0.08210
H          1.23280        1.68760        0.54490
H          2.17570        0.20740        0.23910
F          1.52820        1.18860       -1.39450
