19
Properties=species:S:1:pos:R:3:forces:R:3 energy=-11977.022886835868 stress="0.0 0.0 0.0 0.0 0.0 0.0 0.0 0.0 0.0" pbc="F F F"
C         -0.15230        0.09600       -1.58790
N         -1.50400        0.17880       -1.18950
H         -1.69370        0.84700       -0.45780
C          0.81330        0.67780       -0.76100
H          0.51360        1.14380        0.17570
C          2.15330        0.65470       -1.12560
H          2.89490        1.10370       -0.46970
C          2.54260        0.06680       -2.32560
H          3.58940        0.04980       -2.61630
C          1.57560       -0.49810       -3.15150
H          1.86780       -0.96050       -4.09160
C          0.23110       -0.49030       -2.79530
H         -0.51790       -0.94260       -3.43360
C         -2.51800       -0.69600       -1.50790
C         -3.82330       -0.39490       -0.79370
H         -4.57470       -1.10670       -1.13390
H         -3.70810       -0.48650        0.29210
H         -4.16280        0.62300       -1.01260
O         -2.38680       -1.61660       -2.29130
