22
Properties=species:S:1:pos:R:3:forces:R:3 energy=-13046.137083247018 stress="0.0 0.0 0.0 0.0 0.0 0.0 0.0 0.0 0.0" pbc="F F F"
C          4.04210       -2.04510       -1.59730
H          5.09130       -1.94980       -1.86100
C          3.28520       -0.90500       -1.34780
H          3.73570        0.08330       -1.41170
C          1.93660       -1.02400       -1.01010
C          1.09260        0.18990       -0.71920
C          1.35170       -2.28680       -0.92380
H          0.29600       -2.36200       -0.67490
C          2.11290       -3.42560       -1.16400
H          1.65370       -4.40880       -1.09160
C          3.45880       -3.30590       -1.50120
H          4.05410       -4.19540       -1.69220
N          1.37520        0.86990        0.43670
C          0.66050        2.10270        0.69990
H         -0.08690        2.23530       -0.08180
H          1.34250        2.96210        0.70140
H          0.16270        2.05590        1.67670
C          2.39270        0.47950        1.39240
H          2.57770       -0.59370        1.33020
H          2.03650        0.70780        2.40180
H          3.34130        1.01170        1.23500
O          0.16930        0.50640       -1.45560
