18
Properties=species:S:1:pos:R:3:forces:R:3 energy=-12876.44699801542 stress="0.0 0.0 0.0 0.0 0.0 0.0 0.0 0.0 0.0" pbc="F F F"
C         13.90370      -15.01280       -0.01000
H         14.45380      -14.07570       -0.02510
C         12.51680      -15.06070       -0.01730
H         11.93430      -14.14350       -0.03190
C         11.88570      -16.30060       -0.00880
H         10.80330      -16.38330       -0.01560
C         12.67680      -17.44540        0.00750
H         12.21960      -18.43400        0.01400
N         14.00830      -17.41870        0.01930
C         14.60410      -16.21860        0.01210
N         16.89510      -15.23000       -0.18370
C         18.14910      -15.78050       -0.13340
H         19.03750      -15.17430       -0.25450
C         18.08000      -17.13290        0.07860
H         18.83950      -17.89490        0.17390
N         16.74320      -17.41310        0.16170
H         16.27810      -18.30180        0.27520
C         16.07450      -16.24230        0.00490
