12
Properties=species:S:1:pos:R:3:forces:R:3 energy=-6760.65313504722 stress="0.0 0.0 0.0 0.0 0.0 0.0 0.0 0.0 0.0" pbc="F F F"
C         -0.33800       -2.12610        0.57640
H         -0.44750       -1.28580        1.26680
H         -1.30020       -2.31840        0.08020
H          0.40060       -1.86530       -0.18460
N          0.17250       -3.27910        1.30370
H         -0.43240       -3.58200        2.05490
C          0.73800       -4.32310        0.58620
C          0.21370       -5.70530        0.93520
H          0.08620       -5.83890        2.01550
H          0.91570       -6.44860        0.55570
H         -0.75850       -5.86580        0.45490
O          1.52380       -4.12630       -0.31970
