19
Properties=species:S:1:pos:R:3:forces:R:3 energy=-12439.730780700424 stress="0.0 0.0 0.0 0.0 0.0 0.0 0.0 0.0 0.0" pbc="F F F"
C         21.32510      -34.80750        0.00190
H         21.86800      -33.86640        0.00080
C         19.93730      -34.83060        0.00070
H         19.37270      -33.90200       -0.00140
C         19.28360      -36.05750        0.00220
H         18.20010      -36.12420        0.00130
C         20.06050      -37.21220        0.00480
H         19.58900      -38.19430        0.00610
N         21.39080      -37.20780        0.00600
C         22.01890      -36.02020        0.00460
C         24.46240      -35.09570        0.00520
H         24.30570      -34.02430        0.00320
C         25.71400      -35.76290        0.00740
H         26.69470      -35.30730        0.00750
C         25.45930      -37.11550        0.00950
H         26.13320      -37.96090        0.01150
N         24.10960      -37.28660        0.00860
H         23.58620      -38.14870        0.00950
C         23.48340      -36.06980        0.00590
