18
Properties=species:S:1:pos:R:3:forces:R:3 energy=-21768.603966061815 stress="0.0 0.0 0.0 0.0 0.0 0.0 0.0 0.0 0.0" pbc="F F F"
C         21.83090      -21.15360        0.00640
H         22.40430      -20.23110       -0.00730
C         20.44210      -21.13340       -0.01530
H         19.91590      -20.18250       -0.03390
C         19.72780      -22.32890       -0.01780
H         18.64120      -22.31320       -0.03550
C         20.40830      -23.54360       -0.00220
H         19.85560      -24.47890       -0.00920
C         21.79810      -23.56840        0.02190
H         22.32220      -24.52040        0.02800
C         22.51790      -22.37090        0.03780
N         24.70140      -21.32190       -0.29910
C         26.04130      -21.58950       -0.20000
H         26.75260      -20.81850       -0.47030
C         26.36800      -22.83200        0.24500
H         27.35140      -23.25070        0.40070
S         24.93770      -23.72920        0.55580
C         23.99270      -22.35360        0.05780
