19
Properties=species:S:1:pos:R:3:forces:R:3 energy=-12882.602465169854 stress="0.0 0.0 0.0 0.0 0.0 0.0 0.0 0.0 0.0" pbc="F F F"
C         26.14890      -10.93340       -0.81040
N         27.33480      -10.62550       -0.15380
H         27.27100       -9.77180        0.38590
N         28.74210      -12.58020       -0.38190
C         30.10300      -12.75070       -0.25300
H         30.56270      -13.72450       -0.35360
C         30.71850      -11.56290       -0.00120
H         31.75260      -11.29410        0.15480
N         29.70940      -10.61820        0.03430
C         28.55120      -11.29710       -0.19500
O         25.20410      -10.18040       -0.68420
C         26.11320      -12.19100       -1.63570
H         26.91360      -12.18560       -2.37950
H         26.29270      -13.06560       -1.00580
H         25.13850      -12.25100       -2.11860
C         29.86730       -9.19420        0.23700
H         30.93420       -8.96510        0.20380
H         29.37160       -8.62880       -0.56000
H         29.47790       -8.87240        1.21060
