18
Properties=species:S:1:pos:R:3:forces:R:3 energy=-8457.013789791026 stress="0.0 0.0 0.0 0.0 0.0 0.0 0.0 0.0 0.0" pbc="F F F"
C          5.52380      -23.17930       -0.05630
C          6.81540      -22.37890       -0.04620
H          6.73740      -21.58460       -0.80060
C          8.08840      -23.18050       -0.29030
H          8.04380      -23.70930       -1.24880
H          8.24900      -23.92290        0.49890
H          8.96150      -22.52070       -0.31010
H          6.89760      -21.85670        0.91780
C          5.48960      -24.57500       -0.05980
H          6.41560      -25.14470       -0.07250
C          4.27730      -25.26050       -0.05500
H          4.27950      -26.34820       -0.05750
C          3.07460      -24.56430       -0.04780
H          2.12930      -25.10080       -0.04380
C          3.09320      -23.17220       -0.04650
H          2.15990      -22.61330       -0.04210
C          4.30550      -22.49270       -0.05190
H          4.31020      -21.40340       -0.05140
