19
Properties=species:S:1:pos:R:3:forces:R:3 energy=-12439.807876365996 stress="0.0 0.0 0.0 0.0 0.0 0.0 0.0 0.0 0.0" pbc="F F F"
C          5.60920      -15.08290       -0.00430
H          6.15320      -14.14060       -0.02410
C          4.21920      -15.08600       -0.01660
H          3.67700      -14.14410       -0.03650
C          3.52380      -16.29260       -0.00040
H          2.43690      -16.29510       -0.00570
C          4.22380      -17.49630        0.01380
H          3.68430      -18.43990        0.01580
C          5.61380      -17.49450        0.01670
H          6.17300      -18.42650        0.00220
C          6.31580      -16.28810        0.03190
N          8.55840      -17.05060       -0.74110
C          9.84600      -16.72930       -0.38990
H         10.69170      -17.20040       -0.87290
C          9.85900      -15.79230        0.60490
H         10.65910      -15.30530        1.14240
N          8.53430      -15.52450        0.85680
H          8.16900      -14.90600        1.56380
C          7.79060      -16.29570        0.01170
