15
Properties=species:S:1:pos:R:3:forces:R:3 energy=-5346.456380249332 stress="0.0 0.0 0.0 0.0 0.0 0.0 0.0 0.0 0.0" pbc="F F F"
C          4.61640       -1.72490       -0.04490
H          5.68030       -1.46860       -0.03200
H          4.52390       -2.76700       -0.36790
C          3.85370       -0.79030       -0.98420
H          4.32290       -0.81770       -1.97500
H          3.96350        0.24990       -0.64240
C          2.38850       -1.11400       -1.14520
H          1.93110       -0.81350       -2.09160
C          1.60730       -1.67980       -0.22750
H          2.02940       -1.98990        0.72740
C          0.14200       -1.94190       -0.40590
H         -0.44840       -1.42200        0.35860
H         -0.08300       -3.01080       -0.30500
H          4.24900       -1.65520        0.98430
H         -0.20420       -1.61020       -1.39070
