14
Properties=species:S:1:pos:R:3:forces:R:3 energy=-12410.575085084916 stress="0.0 0.0 0.0 0.0 0.0 0.0 0.0 0.0 0.0" pbc="F F F"
C         -0.14280       -0.00240        0.17160
H          0.05220       -0.55630        1.09540
H          0.20150       -0.62690       -0.65750
C          0.60630        1.32980        0.20360
H          0.38650        1.89060       -0.71280
H          0.22640        1.93300        1.03520
C          2.11170        1.13370        0.34450
H          2.51170        0.55070       -0.49290
H          2.35340        0.59870        1.27000
H          2.63830        2.09270        0.36580
C         -1.65520        0.13040        0.04370
F         -2.08660       -0.27360       -1.16880
F         -2.30030       -0.61980        0.95660
F         -2.08080        1.39970        0.19670
