11
Properties=species:S:1:pos:R:3:forces:R:3 energy=-7300.801255427142 stress="0.0 0.0 0.0 0.0 0.0 0.0 0.0 0.0 0.0" pbc="F F F"
C         -0.90460       -3.06680        1.71400
H         -0.91840       -2.17080        2.33730
H         -1.38390       -3.88860        2.26070
O          0.46490       -3.33880        1.44930
C          0.74140       -4.34280        0.56420
H         -1.46250       -2.87450        0.78860
C          0.21740       -5.70580        0.95760
H          0.43700       -5.90730        2.01130
H          0.69340       -6.45950        0.32920
O          1.44320       -4.14020       -0.38840
H         -0.86850       -5.76410        0.81650
