17
Properties=species:S:1:pos:R:3:forces:R:3 energy=-11376.32478576903 stress="0.0 0.0 0.0 0.0 0.0 0.0 0.0 0.0 0.0" pbc="F F F"
C         18.61130      -30.94320        0.00710
N         19.89100      -30.45130       -0.11070
H         19.99610      -29.45870       -0.25960
C         21.25540      -32.57700        0.15120
H         20.46210      -33.29570        0.28480
C         22.66590      -32.79360        0.13230
H         23.17280      -33.74140        0.25270
C         23.27240      -31.58150       -0.06670
H         24.31620      -31.31420       -0.14320
N         22.28320      -30.62490       -0.17110
H         22.45060      -29.64290       -0.32070
C         21.05840      -31.23330       -0.03820
O         18.37170      -32.12050        0.18790
C         17.53450      -29.87950       -0.10980
H         17.64450      -29.11970        0.67150
H         16.56130      -30.35930       -0.00470
H         17.58160      -29.37600       -1.08150
