14
Properties=species:S:1:pos:R:3:forces:R:3 energy=-10306.62945326114 stress="0.0 0.0 0.0 0.0 0.0 0.0 0.0 0.0 0.0" pbc="F F F"
O          4.82700      -11.98730        0.11810
C          5.48970       -9.72160       -0.25860
H          5.96500       -9.38250       -1.18620
H          4.41280       -9.55420       -0.31720
H          5.90160       -9.12520        0.56440
C          5.73390      -11.19960       -0.02940
N          7.53310      -12.92210       -0.00610
C          8.89730      -12.88900       -0.00230
H          9.48000      -13.80110        0.00020
C          9.35380      -11.59750       -0.00220
H         10.34830      -11.17610       -0.00000
N          8.22730      -10.81980       -0.00910
H          8.20930       -9.81240        0.00240
C          7.14860      -11.66490       -0.00560
