11
Properties=species:S:1:pos:R:3:forces:R:3 energy=-5940.606320828298 stress="0.0 0.0 0.0 0.0 0.0 0.0 0.0 0.0 0.0" pbc="F F F"
F         13.26510      -26.48970       -0.00060
C         14.39850      -25.68650        0.00030
H         14.35170      -25.06910        0.90590
H         14.35430      -25.02740       -0.87460
C         15.65480      -26.54450        0.00130
H         16.49930      -25.91240        0.30290
H         15.86480      -26.87730       -1.02270
C         15.52640      -27.76570        0.90790
H         15.31000      -27.47480        1.94190
H         14.71180      -28.40870        0.56600
H         16.45060      -28.35200        0.90930
