20
Properties=species:S:1:pos:R:3:forces:R:3 energy=-13476.227823247631 stress="0.0 0.0 0.0 0.0 0.0 0.0 0.0 0.0 0.0" pbc="F F F"
C         21.68550      -26.60490       -0.01360
H         22.23610      -27.54310       -0.03930
C         20.29340      -26.60640        0.00300
H         19.75230      -27.54930        0.00730
C         19.59600      -25.40150        0.01030
H         18.50890      -25.40290        0.01950
C         20.29040      -24.19480        0.01220
H         19.74730      -23.25330        0.02840
C         21.68270      -24.19290        0.00640
H         22.23120      -23.25370        0.04080
C         22.38310      -25.39780       -0.03490
C         25.78010      -25.18710        1.21610
H         26.24240      -24.97950        2.17940
N         24.44900      -25.15210        1.18780
C         23.87580      -25.39800        0.00510
N         24.51050      -25.71230       -1.12920
C         25.84090      -25.72850       -1.07540
H         26.35330      -25.96620       -2.00590
C         26.54490      -25.46840        0.09250
H         27.62860      -25.48970        0.12650
