14
Properties=species:S:1:pos:R:3:forces:R:3 energy=-12410.657547515393 stress="0.0 0.0 0.0 0.0 0.0 0.0 0.0 0.0 0.0" pbc="F F F"
C         -0.14090       -0.00040        0.14840
H          0.02860       -0.53620        1.08870
H          0.21220       -0.64400       -0.66310
C          0.60820        1.33210        0.18210
H          0.41210        1.88320       -0.74530
H          0.20920        1.94140        0.99900
C          2.10940        1.13280        0.36130
H          2.52650        0.53750       -0.45910
H          2.32780        0.60910        1.29900
H          2.63990        2.08990        0.38240
C         -1.64180        0.14280        0.00130
F         -2.09720        1.27670        0.57560
F         -2.02690        0.17510       -1.28760
F         -2.29270       -0.87410        0.59820
