20
Properties=species:S:1:pos:R:3:forces:R:3 energy=-13476.50870850964 stress="0.0 0.0 0.0 0.0 0.0 0.0 0.0 0.0 0.0" pbc="F F F"
C         21.68500      -24.19550       -0.01290
H         22.24220      -23.26390       -0.03030
C         20.29580      -24.19560        0.00620
H         19.75580      -23.25210        0.01290
C         19.59780      -25.40040        0.01290
H         18.51130      -25.39910        0.02560
C         20.29290      -26.60690        0.00580
H         19.75070      -27.54910        0.01570
C         21.68210      -26.61020       -0.00720
H         22.23750      -27.54300        0.00420
C         22.38540      -25.40380       -0.02740
C         25.81060      -26.51350        0.38700
H         26.29840      -27.43090        0.71200
N         24.48140      -26.53100        0.36940
C         23.87130      -25.40640       -0.02400
N         24.48590      -24.27540       -0.39110
C         25.81520      -24.29130       -0.38850
H         26.30690      -23.37200       -0.70190
C         26.54950      -25.40250        0.00360
H         27.63380      -25.40180        0.01200
