11
Properties=species:S:1:pos:R:3:forces:R:3 energy=-5940.485387670121 stress="0.0 0.0 0.0 0.0 0.0 0.0 0.0 0.0 0.0" pbc="F F F"
F         13.25880      -26.48380        0.00770
C         14.39310      -25.68350       -0.00190
H         14.34420      -25.06260       -0.90560
H         14.34630      -25.01810        0.86660
C         15.65760      -26.54650       -0.00150
H         16.13350      -26.52720        0.98440
H         15.32890      -27.57780       -0.17180
C         16.65280      -26.14080       -1.08580
H         16.99590      -25.10910       -0.94570
H         16.19530      -26.20790       -2.07930
H         17.53450      -26.78890       -1.07950
