18
Properties=species:S:1:pos:R:3:forces:R:3 energy=-8457.01377921842 stress="0.0 0.0 0.0 0.0 0.0 0.0 0.0 0.0 0.0" pbc="F F F"
C          5.52390      -23.17950       -0.04620
C          6.81550      -22.37910       -0.05560
H          6.74200      -21.59250        0.70740
C          8.08990      -23.18300        0.17270
H          8.05200      -23.72010        1.12680
H          8.24460      -23.91870       -0.62410
H          8.96330      -22.52360        0.19200
H          6.89200      -21.84700       -1.01460
C          4.30570      -22.49280       -0.04550
H          4.31040      -21.40350       -0.04220
C          3.09330      -23.17210       -0.05030
H          2.16010      -22.61310       -0.05060
C          3.07450      -24.56420       -0.05350
H          2.12910      -25.10060       -0.05710
C          4.27710      -25.26060       -0.05130
H          4.27920      -26.34830       -0.05240
C          5.48950      -24.57530       -0.04700
H          6.41550      -25.14510       -0.03850
