14
Properties=species:S:1:pos:R:3:forces:R:3 energy=-10307.026352704715 stress="0.0 0.0 0.0 0.0 0.0 0.0 0.0 0.0 0.0" pbc="F F F"
O          5.58660       -9.96440       -0.00020
C          4.64480      -12.17880       -0.00030
H          4.73000      -12.82940       -0.87700
H          3.68340      -11.66220       -0.00000
H          4.73030      -12.83000        0.87590
C          5.76150      -11.16960       -0.00020
N          7.54510      -12.94570       -0.00010
C          8.91190      -12.88460       -0.00000
H          9.51960      -13.78060       -0.00000
C          9.34000      -11.58000        0.00000
H         10.32730      -11.14040        0.00010
N          8.20110      -10.82800       -0.00000
H          8.10220       -9.82340        0.00000
C          7.14840      -11.68990       -0.00010
