22
Properties=species:S:1:pos:R:3:forces:R:3 energy=-15303.375104231452 stress="0.0 0.0 0.0 0.0 0.0 0.0 0.0 0.0 0.0" pbc="F F F"
C         12.82140      -34.24220        0.78920
H         13.35880      -34.92320        1.44440
C         11.43090      -34.24410        0.75740
H         10.87750      -34.92050        1.40270
C         10.75110      -33.38970       -0.10600
H          9.66410      -33.39420       -0.13420
C         11.46700      -32.53340       -0.93780
H         10.94230      -31.86790       -1.61770
C         12.85730      -32.52430       -0.89580
H         13.41950      -31.85160       -1.54070
C         13.54710      -33.36860       -0.02280
C         17.14160      -32.23050        0.45060
H         17.67290      -31.35510        0.81220
C         15.75100      -32.24810        0.45270
H         15.19630      -31.38430        0.81090
C         15.03600      -33.36370        0.00980
C         15.77770      -34.44240       -0.46980
C         17.16280      -34.44790       -0.49430
H         17.67880      -35.32340       -0.87420
C         17.84690      -33.33190       -0.02500
H         18.93330      -33.32420       -0.03430
F         15.12520      -35.52990       -0.91860
