17
Properties=species:S:1:pos:R:3:forces:R:3 energy=-13416.368941874232 stress="0.0 0.0 0.0 0.0 0.0 0.0 0.0 0.0 0.0" pbc="F F F"
C         12.59850      -20.48850        0.00070
H         13.17970      -19.57100        0.01930
C         11.21100      -20.48710        0.00510
H         10.65920      -19.55110        0.01480
C         10.54060      -21.70510        0.00240
H          9.45570      -21.75280        0.00830
C         11.29500      -22.87630       -0.00260
H         10.80780      -23.85000        0.00110
N         12.62580      -22.89780       -0.01400
C         13.25420      -21.71970       -0.02200
N         15.52960      -20.79240        0.33910
C         16.79160      -21.34500        0.21060
H         17.68920      -20.78390        0.43040
C         16.67170      -22.62220       -0.21200
H         17.35840      -23.42130       -0.44320
O         15.34710      -22.89620       -0.35110
C         14.72640      -21.74950       -0.00960
