16
Properties=species:S:1:pos:R:3:forces:R:3 energy=-20705.18552316953 stress="0.0 0.0 0.0 0.0 0.0 0.0 0.0 0.0 0.0" pbc="F F F"
C         28.37150       -5.23950        0.76670
N         29.40950       -4.81920       -0.04400
H         29.27410       -3.97800       -0.58590
C         31.10760       -6.62220        0.20900
H         30.40270       -7.41300        0.43080
C         32.52040       -6.77950        0.10020
H         33.03090       -7.72940        0.21830
C         33.16350       -5.61080       -0.16570
H         34.22480       -5.44610       -0.29490
S         32.06350       -4.28480       -0.29760
C         30.71390       -5.33230        0.02410
O         28.47510       -6.18510        1.51850
C         27.10550       -4.42010        0.61490
H         27.27800       -3.37360        0.88950
H         26.34150       -4.83850        1.27000
H         26.74540       -4.44380       -0.41910
