23
Properties=species:S:1:pos:R:3:forces:R:3 energy=-24888.75309205909 stress="0.0 0.0 0.0 0.0 0.0 0.0 0.0 0.0 0.0" pbc="F F F"
C          3.81900       -2.39120        0.39200
H          4.44590       -2.43230        1.27850
C          2.62460       -1.67940        0.42480
H          2.30100       -1.15060        1.31700
C          1.81870       -1.65350       -0.70830
S          0.30060       -0.72830       -0.67110
N         -0.90600       -1.87460       -0.68730
C         -1.06530       -2.65960        0.52860
H         -1.04020       -1.98770        1.38750
H         -0.29350       -3.43440        0.64440
H         -2.04720       -3.13970        0.49700
C         -1.15910       -2.57490       -1.93670
H         -1.14070       -1.85720       -2.75850
H         -2.16050       -3.01120       -1.88280
H         -0.43670       -3.38020       -2.13370
C          2.22220       -2.26540       -1.89160
H          1.62630       -2.16250       -2.79560
C          3.41710       -2.97560       -1.91400
H          3.73080       -3.46820       -2.82960
C          4.21290       -3.04540       -0.77290
H          5.14680       -3.60170       -0.79460
O          0.19840        0.00150       -1.92480
O          0.22850       -0.05530        0.61440
