14
Properties=species:S:1:pos:R:3:forces:R:3 energy=-8266.831694491659 stress="0.0 0.0 0.0 0.0 0.0 0.0 0.0 0.0 0.0" pbc="F F F"
C          1.61610       -1.95870        0.96820
H          0.66460       -1.51640        1.29200
H          2.10110       -1.26850        0.27400
H          2.27050       -2.04540        1.84180
N          1.46310       -3.24170        0.29860
H          1.31280       -3.16500       -0.69820
C          0.61000       -4.22620        0.78640
N          0.61150       -4.36180        2.15240
H          1.40610       -3.97680        2.63900
C         -0.01570       -5.52820        2.74130
H         -0.94670       -5.72370        2.20810
H         -0.24080       -5.32630        3.79130
H          0.60900       -6.42850        2.67280
O         -0.04880       -4.93700        0.04340
