15
Properties=species:S:1:pos:R:3:forces:R:3 energy=-12353.28993175015 stress="0.0 0.0 0.0 0.0 0.0 0.0 0.0 0.0 0.0" pbc="F F F"
C         12.01240      -16.44100       -1.15320
N         12.55360      -17.03250       -0.00990
H         11.84310      -17.25650        0.67700
N         13.80480      -19.09740        0.03280
C         15.17360      -19.32340        0.02980
H         15.58420      -20.32450        0.04550
C         15.82640      -18.14420        0.01090
H         16.86320      -17.84140        0.01390
O         14.88620      -17.15120       -0.00570
C         13.70500      -17.80880        0.01070
O         10.86840      -16.04210       -1.13290
C         12.92510      -16.31000       -2.34850
H         13.34330      -17.27770       -2.64260
H         13.76260      -15.64570       -2.11710
H         12.34240      -15.89070       -3.16960
