18
Properties=species:S:1:pos:R:3:forces:R:3 energy=-8457.024791656353 stress="0.0 0.0 0.0 0.0 0.0 0.0 0.0 0.0 0.0" pbc="F F F"
C          5.51540      -23.17440       -0.03290
C          6.81910      -22.39870       -0.05640
H          6.61110      -21.36020        0.22700
C          7.91780      -22.95920        0.84690
H          7.57710      -23.02570        1.88520
H          8.23270      -23.95930        0.53260
H          8.80180      -22.31360        0.82040
H          7.19300      -22.35640       -1.09000
C          5.48610      -24.57110       -0.04180
H          6.41730      -25.13400       -0.04590
C          4.27750      -25.26000       -0.05380
H          4.27950      -26.34760       -0.05780
C          3.07210      -24.56540       -0.05960
H          2.12840      -25.10500       -0.06760
C          3.08590      -23.17440       -0.05720
H          2.15070      -22.61870       -0.06310
C          4.29790      -22.49080       -0.04740
H          4.30170      -21.40190       -0.04550
