20
Properties=species:S:1:pos:R:3:forces:R:3 energy=-12003.16164852627 stress="0.0 0.0 0.0 0.0 0.0 0.0 0.0 0.0 0.0" pbc="F F F"
C         13.25500      -37.20330        0.00010
H         13.79610      -38.14670       -0.00870
C         11.86580      -37.20070        0.01520
H         11.32500      -38.14320        0.02800
C         11.16940      -35.99570        0.01590
H         10.08280      -35.99170        0.02980
C         11.87460      -34.79470        0.00090
H         11.34030      -33.84770        0.00310
C         13.26420      -34.79780       -0.02110
H         13.79800      -33.84940       -0.01580
C         13.97550      -36.00430       -0.02310
C         16.32980      -36.95840        0.48450
H         16.06080      -37.85380        1.03030
C         17.64440      -36.49830        0.20880
H         18.57210      -36.98300        0.48030
C         17.52600      -35.31370       -0.47250
H         18.27960      -34.64710       -0.86780
N         16.19290      -35.03410       -0.60270
H         15.81270      -34.28410       -1.15690
C         15.44360      -36.03700       -0.03300
