19
Properties=species:S:1:pos:R:3:forces:R:3 energy=-11976.929301645676 stress="0.0 0.0 0.0 0.0 0.0 0.0 0.0 0.0 0.0" pbc="F F F"
C         -0.12180        0.10570       -1.54460
N         -1.49070        0.14550       -1.14710
H         -1.99930       -0.72700       -1.07610
C          0.22810       -0.37870       -2.80610
H         -0.55230       -0.72410       -3.48070
C          1.56330       -0.40180       -3.19750
H          1.82550       -0.77610       -4.18430
C          2.55760        0.04660       -2.33260
H          3.60030        0.02530       -2.63930
C          2.20860        0.51990       -1.07160
H          2.97790        0.87000       -0.38780
C          0.87440        0.55230       -0.67740
H          0.59260        0.91880        0.30740
C         -2.32250        1.24560       -1.16000
C         -1.68250        2.58580       -1.44990
H         -2.47670        3.31940       -1.58900
H         -1.04160        2.54500       -2.33620
H         -1.05190        2.89820       -0.60970
O         -3.51170        1.11760       -0.93150
