17
Properties=species:S:1:pos:R:3:forces:R:3 energy=-11376.42864974895 stress="0.0 0.0 0.0 0.0 0.0 0.0 0.0 0.0 0.0" pbc="F F F"
C         19.24100      -29.98160        1.13280
N         19.88870      -30.47590        0.01600
H         19.49910      -30.14010       -0.85670
C         21.30410      -32.57110        0.06490
H         20.53400      -33.32610        0.14940
C         22.71130      -32.77150        0.02260
H         23.22680      -33.72340        0.05960
C         23.30090      -31.53690       -0.08030
H         24.34170      -31.25010       -0.14820
N         22.30590      -30.59840       -0.10210
H         22.43480      -29.59930       -0.12790
C         21.07950      -31.21680        0.00190
O         18.28690      -29.23940        1.00740
C         19.75810      -30.44690        2.47520
H         20.84660      -30.54400        2.48700
H         19.42810      -29.73580        3.23380
H         19.33020      -31.42740        2.70980
