14
Properties=species:S:1:pos:R:3:forces:R:3 energy=-31478.066835013968 stress="0.0 0.0 0.0 0.0 0.0 0.0 0.0 0.0 0.0" pbc="F F F"
C          1.99680      -24.67750       -0.90140
H          0.95010      -24.74420       -1.16380
C          2.80970      -25.65690       -0.43250
H          2.50870      -26.67990       -0.24920
N          4.10620      -25.29250       -0.17820
C          4.28780      -24.04640       -0.45550
S          2.87550      -23.20750       -1.04530
S          5.89980      -23.29200       -0.13910
C          6.02430      -22.02090       -1.37910
H          5.25320      -21.26920       -1.20700
H          7.01680      -21.58380       -1.25640
H          5.93480      -22.48300       -2.36330
O          5.83540      -22.63360        1.15940
O          6.91210      -24.29300       -0.43460
