14
Properties=species:S:1:pos:R:3:forces:R:3 energy=-31478.11318376194 stress="0.0 0.0 0.0 0.0 0.0 0.0 0.0 0.0 0.0" pbc="F F F"
C          2.00620      -24.66360       -0.88790
H          0.95410      -24.71160       -1.13530
C          2.82520      -25.67710       -0.50740
H          2.52450      -26.71120       -0.39840
N          4.12720      -25.33690       -0.25430
C          4.29540      -24.06860       -0.41990
S          2.89140      -23.18940       -0.93950
S          5.90530      -23.28690       -0.23510
C          5.66110      -22.10270        1.08010
H          5.27420      -22.61980        1.95970
H          6.64950      -21.68920        1.29000
H          4.98970      -21.31290        0.74130
O          6.83530      -24.29410        0.24610
O          6.16440      -22.52330       -1.44880
