17
Properties=species:S:1:pos:R:3:forces:R:3 energy=-11376.450912659328 stress="0.0 0.0 0.0 0.0 0.0 0.0 0.0 0.0 0.0" pbc="F F F"
C         19.69700      -29.35520       -0.81160
N         19.87990      -30.45440        0.00030
H         19.05150      -30.94000        0.30990
C         21.24360      -32.57520       -0.08280
H         20.46410      -33.32190       -0.16330
C         22.65140      -32.80260       -0.05770
H         23.15610      -33.75920       -0.09820
C         23.26400      -31.57860        0.02330
H         24.30980      -31.30950        0.06480
N         22.28750      -30.61230        0.06590
H         22.40850      -29.63050       -0.13570
C         21.06300      -31.21770        0.01290
O         20.63240      -28.76980       -1.32690
C         18.25420      -28.91280       -0.95480
H         17.81380      -28.69670        0.02470
H         17.64500      -29.68870       -1.43200
H         18.22810      -28.01140       -1.56760
