22
Properties=species:S:1:pos:R:3:forces:R:3 energy=-13046.177416604842 stress="0.0 0.0 0.0 0.0 0.0 0.0 0.0 0.0 0.0" pbc="F F F"
C          2.11640       -3.43090       -1.07220
H          1.65600       -4.40520       -0.92640
C          1.38260       -2.27590       -0.83010
H          0.34450       -2.33100       -0.51250
C          1.97280       -1.02170       -0.99090
C          1.12590        0.19930       -0.74110
C          3.28640       -0.93320       -1.45430
H          3.73760        0.04330       -1.61190
C          4.01540       -2.09060       -1.71170
H          5.04180       -2.01490       -2.05740
C          3.43520       -3.34010       -1.51120
H          4.00880       -4.24290       -1.70490
N          1.67250        1.20370        0.01860
C          0.87630        2.40320        0.19770
H          0.17540        2.48660       -0.63250
H          0.30370        2.37020        1.13580
H          1.53210        3.27930        0.22120
C          2.73910        1.02390        0.98420
H          3.24570        0.06990        0.84320
H          3.47210        1.83250        0.88060
H          2.34620        1.05230        2.01040
O         -0.01150        0.27490       -1.18440
