17
Properties=species:S:1:pos:R:3:forces:R:3 energy=-22204.96610222995 stress="0.0 0.0 0.0 0.0 0.0 0.0 0.0 0.0 0.0" pbc="F F F"
C         30.11940      -21.08340       -0.00470
H         30.69500      -20.16310       -0.02910
C         28.73130      -21.08940        0.00770
H         28.17570      -20.15550        0.01120
C         28.06460      -22.30990        0.00770
H         26.97980      -22.35940        0.01350
C         28.82090      -23.47830       -0.00510
H         28.33670      -24.45310       -0.01090
N         30.15180      -23.49220       -0.00760
C         30.78040      -22.31140        0.00240
N         33.01760      -21.45610       -0.56440
C         34.33490      -21.83040       -0.47820
H         35.09640      -21.16720       -0.87010
C         34.56780      -23.03710        0.11020
H         35.51710      -23.52410        0.28370
S         33.08070      -23.76080        0.56530
C         32.25440      -22.36450       -0.03150
