18
Properties=species:S:1:pos:R:3:forces:R:3 energy=-6416.07708450317 stress="0.0 0.0 0.0 0.0 0.0 0.0 0.0 0.0 0.0" pbc="F F F"
C          4.78720       -1.36950       -1.91840
H          5.82630       -1.19680       -1.62020
H          4.63060       -0.87170       -2.88090
C          3.82150       -0.84390       -0.85490
H          3.96620        0.24370       -0.76540
H          4.07270       -1.27160        0.12400
C          2.36340       -1.11800       -1.15580
C          1.88740       -0.70070       -2.52660
H          2.24710        0.30770       -2.76680
H          0.79850       -0.69360       -2.61540
H          2.27890       -1.37340       -3.29980
C          1.58610       -1.67050       -0.22160
H          2.06270       -1.94620        0.72230
C          0.12070       -1.97950       -0.30760
H         -0.42830       -1.48750        0.50410
H         -0.05700       -3.05640       -0.20050
H          4.65460       -2.44640       -2.07110
H         -0.32630       -1.66200       -1.25170
