18
Properties=species:S:1:pos:R:3:forces:R:3 energy=-21768.320867565428 stress="0.0 0.0 0.0 0.0 0.0 0.0 0.0 0.0 0.0" pbc="F F F"
C         30.18450       -8.36170        0.00720
H         30.75160       -7.43550        0.02290
C         28.79580       -8.35070        0.01250
H         28.25190       -7.41000        0.02170
C         28.11740       -9.56300        0.00130
H         27.03220       -9.60520        0.00060
C         28.86760      -10.73550       -0.00640
H         28.37680      -11.70650       -0.01300
N         30.19800      -10.76400       -0.00110
C         30.84750       -9.59150       -0.00090
C         33.17780       -8.83840       -0.73780
H         32.83890       -8.01380       -1.35640
C         34.54530       -9.21170       -0.57520
H         35.37900       -8.69310       -1.03650
C         34.68890      -10.30340        0.22910
H         35.60570      -10.79760        0.52310
S         33.17510      -10.90290        0.78050
C         32.32230       -9.64260       -0.03580
