17
Properties=species:S:1:pos:R:3:forces:R:3 energy=-12850.011953568459 stress="0.0 0.0 0.0 0.0 0.0 0.0 0.0 0.0 0.0" pbc="F F F"
C         15.72540      -21.93230       -0.05750
H         14.77750      -21.40350       -0.08250
C         15.77910      -23.32270       -0.00560
H         14.86830      -23.91530        0.01500
C         17.01670      -23.94820        0.03000
H         17.12760      -25.02800        0.08160
C         18.15970      -23.14940       -0.00020
N         18.12580      -21.82180       -0.05180
C         16.92380      -21.23560       -0.07780
H         16.93240      -20.14800       -0.11970
N         19.43840      -23.75980        0.03610
H         20.10330      -23.31410       -0.58730
C         20.12940      -24.05000        1.22660
N         19.36610      -24.42170        2.30130
H         19.88950      -24.53990        3.15650
H         18.40130      -24.14200        2.39830
O         21.34550      -24.05380        1.24170
