14
Properties=species:S:1:pos:R:3:forces:R:3 energy=-31478.066835699803 stress="0.0 0.0 0.0 0.0 0.0 0.0 0.0 0.0 0.0" pbc="F F F"
C          1.99350      -24.67470       -0.88840
H          0.94280      -24.73820       -1.13560
C          2.82980      -25.67370       -0.51110
H          2.54790      -26.71270       -0.40230
N          4.12640      -25.30930       -0.25690
C          4.28160      -24.04130       -0.43140
S          2.84700      -23.18380       -0.93440
S          5.92340      -23.31180       -0.23160
C          5.58690      -21.65550        0.32750
H          5.06050      -21.10820       -0.45520
H          6.56180      -21.20380        0.51870
H          5.00860      -21.70930        1.25100
O          6.53050      -23.21420       -1.55290
O          6.58110      -24.01650        0.85700
