17
Properties=species:S:1:pos:R:3:forces:R:3 energy=-12849.970200286825 stress="0.0 0.0 0.0 0.0 0.0 0.0 0.0 0.0 0.0" pbc="F F F"
C         15.43840      -17.03400       -0.05460
H         14.49080      -16.51070       -0.09900
C         16.64900      -16.36300        0.02110
H         16.68910      -15.27620        0.03890
N         17.82690      -16.98480        0.08590
C         17.77920      -18.31740        0.07130
N         16.67990      -19.07410       -0.03340
C         15.52310      -18.42100       -0.07750
H         14.63150      -19.04160       -0.14430
N         18.97960      -19.03010        0.02010
H         18.82470      -19.98800       -0.28170
C         20.03650      -19.00470        0.94330
C         20.29740      -17.71170        1.67380
H         19.48920      -17.49040        2.37610
H         20.35370      -16.86990        0.97970
H         21.23460      -17.82510        2.21970
O         20.72000      -19.99790        1.07850
