13
Properties=species:S:1:pos:R:3:forces:R:3 energy=-19635.297688332106 stress="0.0 0.0 0.0 0.0 0.0 0.0 0.0 0.0 0.0" pbc="F F F"
O         21.24950      -18.61350       -0.19190
C         21.70070      -16.30280        0.23390
H         22.06700      -15.97410        1.21210
H         20.61310      -16.21360        0.19930
H         22.15070      -15.65190       -0.52230
C         22.07010      -17.74640       -0.00670
N         23.94580      -19.33490       -0.00930
C         25.31320      -19.37800        0.00070
H         25.80550      -20.34230       -0.00160
C         25.94990      -18.17500        0.01070
H         27.01240      -17.97840        0.01930
S         24.79350      -16.91010        0.01190
C         23.52920      -18.10480       -0.00240
