23
Properties=species:S:1:pos:R:3:forces:R:3 energy=-24888.784544920094 stress="0.0 0.0 0.0 0.0 0.0 0.0 0.0 0.0 0.0" pbc="F F F"
C          3.53080       -2.83230        0.45930
H          3.99750       -3.14020        1.39050
C          2.38350       -2.04720        0.48850
H          1.94490       -1.72240        1.42850
C          1.79640       -1.66270       -0.71170
S          0.29790       -0.71050       -0.68070
N         -0.91330       -1.85870       -0.68660
C         -1.05830       -2.63560        0.53760
H         -1.09820       -1.95070        1.38600
H         -0.24600       -3.36150        0.69100
H         -2.00870       -3.17360        0.48540
C         -1.08660       -2.59640       -1.93100
H         -1.13760       -1.88560       -2.75720
H         -2.03960       -3.12960       -1.87720
H         -0.28280       -3.32280       -2.12180
C          2.34290       -2.03240       -1.93570
H          1.87460       -1.69520       -2.85700
C          3.49030       -2.81750       -1.95470
H          3.92530       -3.11370       -2.90480
C          4.08270       -3.22030       -0.75970
H          4.97960       -3.83440       -0.77850
O          0.20420        0.01120       -1.93830
O          0.23070       -0.02940        0.60090
