12
Properties=species:S:1:pos:R:3:forces:R:3 energy=-6760.487527996557 stress="0.0 0.0 0.0 0.0 0.0 0.0 0.0 0.0 0.0" pbc="F F F"
C         -0.72550       -2.87520        1.90660
H         -0.60320       -2.14710        2.71390
H         -1.27320       -3.73270        2.31040
H         -1.33250       -2.41950        1.10940
N          0.59650       -3.32130        1.47380
H          1.12640       -2.53870        1.10110
C          0.65750       -4.32040        0.48600
C          0.21170       -5.69780        0.93110
H         -0.88280       -5.77140        0.93910
H          0.55850       -5.90390        1.94800
H          0.60780       -6.43820        0.23390
O          1.18420       -4.11110       -0.58660
