15
Properties=species:S:1:pos:R:3:forces:R:3 energy=-7830.485578250188 stress="0.0 0.0 0.0 0.0 0.0 0.0 0.0 0.0 0.0" pbc="F F F"
C          2.50580       -0.87840       -0.01180
H          3.56730       -0.70410        0.19000
H          2.36010       -0.87250       -1.09670
H          1.94370       -0.04140        0.41930
C          2.05250       -2.20100        0.58530
H          2.59940       -3.04260        0.15420
H          2.24260       -2.22410        1.66780
N          0.64500       -2.42780        0.31070
H          0.02610       -1.63110        0.32910
C          0.11150       -3.68220        0.37690
C         -1.39440       -3.74190        0.20800
H         -1.90810       -2.95830        0.77570
H         -1.65840       -3.62050       -0.84840
H         -1.74380       -4.71900        0.54210
O          0.80720       -4.67320        0.52660
