15
Properties=species:S:1:pos:R:3:forces:R:3 energy=-9870.228650827128 stress="0.0 0.0 0.0 0.0 0.0 0.0 0.0 0.0 0.0" pbc="F F F"
O         12.43320      -29.83120       -0.64200
C         11.41280      -31.68450        0.47560
H         11.43670      -32.74130        0.18820
H         10.47370      -31.23020        0.15350
H         11.48680      -31.64660        1.56750
C         12.56920      -30.93370       -0.13860
C         14.39920      -32.80940       -0.01860
H         13.80110      -33.71340       -0.03660
C         15.81440      -32.73000        0.00310
H         16.51240      -33.55550        0.00130
C         16.14720      -31.39400        0.01600
H         17.11450      -30.90950        0.02500
N         14.99640      -30.67250        0.01120
H         14.89710      -29.67560       -0.11020
C         13.91500      -31.51560        0.02750
