10
Properties=species:S:1:pos:R:3:forces:R:3 energy=-6263.4565409629595 stress="0.0 0.0 0.0 0.0 0.0 0.0 0.0 0.0 0.0" pbc="F F F"
O          0.05600       -3.86020        2.89730
H          0.93300       -4.02350        3.26890
C          0.21350       -3.41360        1.57940
H          0.94260       -2.59460        1.50840
H         -0.77930       -3.04490        1.28610
O          0.62030       -4.39640        0.66390
C          0.20270       -5.71690        0.95000
H          0.60190       -6.34170        0.14870
H         -0.89420       -5.79690        0.95970
H          0.58150       -6.06900        1.91630
