18
Properties=species:S:1:pos:R:3:forces:R:3 energy=-6416.0834247867415 stress="0.0 0.0 0.0 0.0 0.0 0.0 0.0 0.0 0.0" pbc="F F F"
C          4.72930       -1.85270       -1.74010
H          5.78830       -1.68170       -1.52030
H          4.57710       -1.67050       -2.80960
C          3.84090       -0.93600       -0.89040
H          4.11370        0.10840       -1.09450
H          4.04590       -1.10900        0.17410
C          2.36180       -1.12090       -1.15140
C          1.88550       -0.68950       -2.51860
H          2.32460        0.27810       -2.79150
H          0.79820       -0.59090       -2.57680
H          2.19480       -1.40670       -3.29060
C          1.58230       -1.68370       -0.22330
H          2.05360       -1.96150        0.72250
C          0.11450       -1.98250       -0.31560
H         -0.43130       -1.50640        0.50760
H         -0.07080       -3.06070       -0.23490
H          4.50910       -2.90750       -1.54440
H         -0.32970       -1.63970       -1.25220
