14
Properties=species:S:1:pos:R:3:forces:R:3 energy=-12410.610754581736 stress="0.0 0.0 0.0 0.0 0.0 0.0 0.0 0.0 0.0" pbc="F F F"
C         -0.14590       -0.00090        0.21980
H          0.16890       -0.57670       -0.65670
H          0.07920       -0.60510        1.10340
C          0.60320        1.33160        0.24420
H          0.26640        1.92180        1.10500
H          0.33700        1.90410       -0.64980
C          2.11340        1.13250        0.30990
H          2.39700        0.57640        1.21090
H          2.47390        0.56890       -0.55820
H          2.64170        2.09080        0.32880
C         -1.65650        0.13670        0.12890
F         -2.02960        1.33870       -0.35860
F         -2.25310       -0.00030        1.32730
F         -2.18540       -0.78760       -0.69640
