21
Properties=species:S:1:pos:R:3:forces:R:3 energy=-13945.560039926459 stress="0.0 0.0 0.0 0.0 0.0 0.0 0.0 0.0 0.0" pbc="F F F"
C         29.17560      -17.04400       -1.49880
H         29.66950      -17.63260       -2.26700
C         27.79330      -17.04360       -1.36650
H         27.17460      -17.62490       -2.04520
C         27.21980      -16.29710       -0.34470
H         26.14460      -16.27040       -0.19590
C         28.06250      -15.58010        0.49730
H         27.65210      -14.98900        1.31270
N         29.38930      -15.55300        0.37550
C         29.93340      -16.27130       -0.61890
N         32.17270      -17.37080       -0.63140
C         33.46090      -16.90560       -0.65190
H         34.30540      -17.57970       -0.60250
C         33.47520      -15.54040       -0.73330
H         34.27490      -14.81430       -0.77180
N         32.15890      -15.15180       -0.76360
C         31.41690      -16.29670       -0.70590
C         31.66630      -13.78570       -0.81530
H         32.48200      -13.13240       -1.13310
H         30.85600      -13.72950       -1.54550
H         31.28090      -13.46520        0.15630
