22
Properties=species:S:1:pos:R:3:forces:R:3 energy=-13509.197562697527 stress="0.0 0.0 0.0 0.0 0.0 0.0 0.0 0.0 0.0" pbc="F F F"
C         21.46760      -15.38140        0.87500
H         21.93940      -14.58350        1.44320
C         20.08700      -15.41280        0.71030
H         19.47360      -14.62860        1.14690
C         19.49070      -16.44750       -0.00540
H         18.41100      -16.47130       -0.13030
C         20.27890      -17.45460       -0.55540
H         19.81750      -18.26740       -1.10940
C         21.65900      -17.41980       -0.39840
H         22.28570      -18.19980       -0.82540
C         22.26490      -16.37500        0.30630
N         24.36440      -16.53430        1.63950
C         25.69900      -16.51130        1.32190
H         26.45940      -16.64520        2.08000
C         25.86980      -16.30930       -0.01850
H         26.74740      -16.22830       -0.64430
N         24.60360      -16.20340       -0.54380
C         23.73320      -16.34640        0.50090
C         24.27510      -16.00070       -1.94120
H         25.00000      -15.31230       -2.38250
H         24.28740      -16.94200       -2.50240
H         23.28200      -15.55350       -2.01480
