18
Properties=species:S:1:pos:R:3:forces:R:3 energy=-12980.136051270578 stress="0.0 0.0 0.0 0.0 0.0 0.0 0.0 0.0 0.0" pbc="F F F"
C          4.47240      -23.16150        0.00620
H          5.02700      -24.09630       -0.00010
C          3.08340      -23.14890       -0.01010
H          2.53290      -24.08590       -0.02360
C          2.39770      -21.93620       -0.01180
H          1.31100      -21.92750       -0.02530
C          3.10300      -20.73440        0.00180
H          2.56710      -19.78830       -0.00140
C          4.49270      -20.74130        0.01990
H          5.04830      -19.80810        0.03310
C          5.17980      -21.95770        0.02820
N          7.42140      -23.01870       -0.13870
C          8.70240      -22.49780       -0.06660
H          9.57990      -23.12010       -0.17120
C          8.62960      -21.16710        0.14310
H          9.34640      -20.37040        0.26340
O          7.31070      -20.82640        0.20490
C          6.64560      -21.99370        0.03110
