18
Properties=species:S:1:pos:R:3:forces:R:3 energy=-8899.796528381632 stress="0.0 0.0 0.0 0.0 0.0 0.0 0.0 0.0 0.0" pbc="F F F"
C          2.54030       -2.03580        1.94800
H          3.63150       -1.95610        2.00130
H          2.11490       -1.09810        2.32460
H          2.22640       -2.84690        2.61330
C          2.10060       -2.30340        0.51300
H          2.52080       -3.24100        0.14510
H          2.44670       -1.49160       -0.14130
N          0.65500       -2.41690        0.36780
C         -0.14860       -1.21880        0.50250
H         -0.92180       -1.17710       -0.27100
H         -0.64270       -1.13510        1.48230
H          0.49860       -0.34760        0.37250
C          0.10410       -3.66940        0.29330
C         -1.40890       -3.74010        0.21360
H         -1.88890       -3.21570        1.04530
H         -1.77220       -3.29490       -0.71910
H         -1.69580       -4.79110        0.23570
O          0.78910       -4.68200        0.27570
