16
Properties=species:S:1:pos:R:3:forces:R:3 energy=-10906.982372983011 stress="0.0 0.0 0.0 0.0 0.0 0.0 0.0 0.0 0.0" pbc="F F F"
C          7.54680      -21.30800        0.18480
H          6.64610      -20.71060        0.29080
C          7.51610      -22.69240        0.31950
H          6.58490      -23.20860        0.53770
C          8.70100      -23.40290        0.18080
H          8.74880      -24.48050        0.30510
C          9.86430      -22.69390       -0.11320
N          9.90920      -21.36500       -0.23690
C          8.76580      -20.69550       -0.08640
H          8.82930      -19.61420       -0.19420
C         11.18010      -23.43040       -0.23270
O         11.39830      -24.41090        0.44790
C         12.13070      -22.93120       -1.29090
H         13.04420      -23.52660       -1.26870
H         11.65800      -22.99970       -2.27710
H         12.35380      -21.87240       -1.12280
