18
Properties=species:S:1:pos:R:3:forces:R:3 energy=-12979.625133372201 stress="0.0 0.0 0.0 0.0 0.0 0.0 0.0 0.0 0.0" pbc="F F F"
C         12.73180       -7.67660       -0.00090
H         13.28960       -6.74450       -0.00070
C         11.34450       -7.67230       -0.01880
H         10.79640       -6.73410       -0.03990
C         10.67140       -8.88740       -0.01000
H          9.58680       -8.93710       -0.02460
C         11.43040      -10.05560        0.01920
H         10.94430      -11.02980        0.02770
N         12.75950      -10.07810        0.04010
C         13.40070       -8.90290        0.02680
C         15.81890       -7.97560       -0.14890
H         15.65580       -6.92500       -0.35020
C         17.08020       -8.63860       -0.03890
H         18.06590       -8.20240       -0.12540
C         16.79400       -9.94240        0.19850
H         17.40210      -10.82180        0.35150
O         15.45860      -10.14230        0.24170
C         14.86870       -8.93770        0.03400
