15
Properties=species:S:1:pos:R:3:forces:R:3 energy=-7830.495390597111 stress="0.0 0.0 0.0 0.0 0.0 0.0 0.0 0.0 0.0" pbc="F F F"
C          2.55140       -1.08200       -0.45200
H          3.62140       -0.90300       -0.30560
H          2.02950       -0.13000       -0.29770
H          2.39550       -1.39750       -1.48820
C          2.04340       -2.14270        0.51360
H          2.22150       -1.83110        1.55300
H          2.56050       -3.09320        0.37040
N          0.63430       -2.41420        0.29890
H          0.00010       -1.63100        0.26110
C          0.11700       -3.67670        0.35420
C         -1.39140       -3.74630        0.21020
H         -1.73240       -4.71210        0.58400
H         -1.66970       -3.66720       -0.84670
H         -1.89950       -2.94350        0.75540
O          0.81710       -4.66810        0.47950
