17
Properties=species:S:1:pos:R:3:forces:R:3 energy=-11376.35591982004 stress="0.0 0.0 0.0 0.0 0.0 0.0 0.0 0.0 0.0" pbc="F F F"
C         18.82630      -30.68640       -0.88430
N         19.90800      -30.45530       -0.05240
H         19.64100      -29.93560        0.77730
C         21.30520      -32.58490       -0.05270
H         20.53700      -33.34410       -0.11570
C         22.71280      -32.78220       -0.01660
H         23.23280      -33.73180       -0.03410
C         23.29970      -31.54280        0.04650
H         24.33970      -31.25070        0.08630
N         22.30010      -30.60580        0.06660
H         22.42400      -29.60840        0.00990
C         21.07860      -31.22960        0.00420
O         17.74320      -30.19910       -0.62890
C         19.08240      -31.50220       -2.13090
H         20.14910      -31.65380       -2.31510
H         18.62100      -30.98910       -2.97820
H         18.58810      -32.47570       -2.03660
