14
Properties=species:S:1:pos:R:3:forces:R:3 energy=-10306.770255211477 stress="0.0 0.0 0.0 0.0 0.0 0.0 0.0 0.0 0.0" pbc="F F F"
O          5.58600      -10.20920       -1.01020
C          4.65280      -11.85390        0.46460
H          4.74430      -12.94380        0.39200
H          3.68460      -11.52170        0.08530
H          4.74920      -11.58980        1.52350
C          5.75700      -11.19400       -0.31890
N          7.54890      -12.95220       -0.09380
C          8.91390      -12.88520        0.01270
H          9.52160      -13.78000        0.04390
C          9.33200      -11.57990        0.05490
H         10.31300      -11.13220        0.12900
N          8.18830      -10.83300       -0.02130
H          8.11020       -9.83240       -0.12760
C          7.14160      -11.70160       -0.07990
