16
Properties=species:S:1:pos:R:3:forces:R:3 energy=-10906.98237156066 stress="0.0 0.0 0.0 0.0 0.0 0.0 0.0 0.0 0.0" pbc="F F F"
C          7.54600      -21.30850        0.17990
H          6.64400      -20.71170        0.27940
C          7.51590      -22.69250        0.31850
H          6.58320      -23.20950        0.52780
C          8.69960      -23.40360        0.17330
H          8.73710      -24.48680        0.23870
C          9.87010      -22.69080       -0.08020
N          9.91160      -21.36370       -0.22360
C          8.76410      -20.69640       -0.09580
H          8.82560      -19.61620       -0.21500
C         11.17120      -23.43510       -0.28290
O         11.17670      -24.52980       -0.80620
C         12.40830      -22.78230        0.27930
H         13.27860      -23.40090        0.05690
H         12.30150      -22.65460        1.36240
H         12.52680      -21.77970       -0.14460
