15
Properties=species:S:1:pos:R:3:forces:R:3 energy=-21141.879662918673 stress="0.0 0.0 0.0 0.0 0.0 0.0 0.0 0.0 0.0" pbc="F F F"
C         28.16610      -17.24610       -0.69020
N         29.32680      -16.93320        0.02600
H         29.24470      -16.03490        0.48530
N         30.82870      -18.75920       -0.30230
C         32.17890      -19.01270       -0.17480
H         32.54340      -20.01240       -0.37850
C         32.95940      -17.97330        0.19880
H         34.02810      -17.95340        0.35420
S         31.97640      -16.56550        0.42030
C         30.58080      -17.51960       -0.02240
O         27.23360      -16.47480       -0.61900
C         28.14160      -18.51970       -1.48710
H         28.37140      -19.38160       -0.85670
H         27.15050      -18.61450       -1.93020
H         28.90350      -18.49790       -2.27060
