11
Properties=species:S:1:pos:R:3:forces:R:3 energy=-7300.967011734497 stress="0.0 0.0 0.0 0.0 0.0 0.0 0.0 0.0 0.0" pbc="F F F"
C         -0.20080       -3.48890        2.60520
H         -0.39860       -2.49570        3.01020
H         -1.13410       -4.06270        2.59040
O          0.30620       -3.27410        1.29770
C          0.72990       -4.33140        0.56310
H          0.53060       -3.99810        3.24500
C          0.22790       -5.70120        0.96560
H         -0.86750       -5.73280        0.96160
H          0.60610       -6.42740        0.24590
O          1.43200       -4.13350       -0.39210
H          0.57380       -5.98070        1.96650
