12
Properties=species:S:1:pos:R:3:forces:R:3 energy=-6760.787788313374 stress="0.0 0.0 0.0 0.0 0.0 0.0 0.0 0.0 0.0" pbc="F F F"
C         -0.69030       -3.33780        2.38510
H         -0.65920       -2.41820        2.97230
H         -0.56900       -4.17730        3.07610
H         -1.68290       -3.41590        1.91790
N          0.39830       -3.30980        1.43060
H          0.70360       -2.40960        1.08570
C          0.72560       -4.33090        0.57710
C          0.21300       -5.70790        0.94900
H          0.58900       -6.01760        1.93060
H          0.56410       -6.41360        0.19620
H         -0.88120       -5.73550        0.98620
O          1.42670       -4.13410       -0.40030
