18
Properties=species:S:1:pos:R:3:forces:R:3 energy=-6416.025682087543 stress="0.0 0.0 0.0 0.0 0.0 0.0 0.0 0.0 0.0" pbc="F F F"
C          4.95150       -1.48730       -0.16770
H          4.55290       -2.25140        0.50880
H          5.46840       -0.73350        0.43640
C          3.82180       -0.86700       -0.98970
H          3.07980       -0.46510       -0.28470
C          3.11270       -1.92410       -1.84290
H          2.73240       -2.73980       -1.21790
H          3.80430       -2.35260       -2.57660
H          2.26800       -1.49030       -2.38850
C          4.25880        0.28960       -1.85600
H          3.43560        0.90400       -2.23270
C          5.49830        0.56760       -2.25340
H          6.32750       -0.03830       -1.89180
C          5.86710        1.68660       -3.18060
H          6.36660        1.30210       -4.07760
H          6.56760        2.37940       -2.69940
H          5.69180       -1.97580       -0.81290
H          4.98640        2.25570       -3.49650
