22
Properties=species:S:1:pos:R:3:forces:R:3 energy=-13509.197565588165 stress="0.0 0.0 0.0 0.0 0.0 0.0 0.0 0.0 0.0" pbc="F F F"
C         21.64250      -17.45490       -0.39200
H         22.24950      -18.25830       -0.80230
C         20.26010      -17.46370       -0.54290
H         19.78150      -18.27720       -1.08250
C         19.49000      -16.43880       -0.00010
H         18.40920      -16.44950       -0.11700
C         20.10590      -15.40360        0.69790
H         19.50850      -14.60480        1.12870
C         21.48770      -15.38950        0.84220
H         21.98070      -14.58480        1.38350
C         22.26770      -16.40810        0.28610
N         24.42570      -17.26020        1.19590
C         25.72560      -16.82620        1.12940
H         26.51840      -17.34430        1.65280
C         25.81920      -15.70940        0.34810
H         26.65090      -15.08450        0.05460
N         24.53970      -15.44670       -0.08140
C         23.73890      -16.41370        0.45980
C         24.13510      -14.34080       -0.92690
H         24.90360      -14.17040       -1.68480
H         23.99020      -13.42000       -0.35030
H         23.20140      -14.59760       -1.43080
