22
Properties=species:S:1:pos:R:3:forces:R:3 energy=-13046.137083074373 stress="0.0 0.0 0.0 0.0 0.0 0.0 0.0 0.0 0.0" pbc="F F F"
C          2.19990       -3.41360       -0.85890
H          1.81770       -4.38160       -0.54900
C          1.45470       -2.26480       -0.61410
H          0.49170       -2.32640       -0.11150
C          1.94240       -1.01960       -1.01240
C          1.16720        0.24530       -0.74900
C          3.17660       -0.93120       -1.65520
H          3.53570        0.04450       -1.97330
C          3.92440       -2.07990       -1.89000
H          4.88840       -2.00590       -2.38800
C          3.43670       -3.32230       -1.49240
H          4.01910       -4.22150       -1.67810
N          1.07080        0.64380        0.55870
C          0.24450        1.79370        0.86670
H         -0.11100        2.21740       -0.07210
H         -0.61490        1.50810        1.48590
H          0.82590        2.54860        1.41090
C          1.68600       -0.04550        1.67570
H          2.55690       -0.60920        1.33860
H          2.02030        0.69580        2.40830
H          0.99140       -0.73390        2.17690
O          0.70290        0.90280       -1.66940
