21
Properties=species:S:1:pos:R:3:forces:R:3 energy=-13945.353787436805 stress="0.0 0.0 0.0 0.0 0.0 0.0 0.0 0.0 0.0" pbc="F F F"
C         29.13150      -16.99830       -1.58390
H         29.54420      -17.54190       -2.41980
C         27.75870      -17.02380       -1.37920
H         27.11920      -17.58470       -2.05510
C         27.22040      -16.32730       -0.30670
H         26.15320      -16.31870       -0.10760
C         28.10050      -15.63220        0.51570
H         27.73250      -15.06840        1.37190
N         29.41580      -15.59980        0.33070
C         29.93770      -16.26940       -0.70120
N         32.11140      -15.45340        0.06430
C         33.41080      -15.57030       -0.32750
H         34.21020      -15.08330        0.21660
C         33.50410      -16.35300       -1.44320
H         34.34390      -16.67490       -2.04240
N         32.22230      -16.73240       -1.75170
C         31.41140      -16.15700       -0.80130
C         31.90500      -17.58060       -2.88750
H         32.84080      -17.82460       -3.39410
H         31.25460      -17.06530       -3.60050
H         31.43540      -18.51560       -2.56800
