22
Properties=species:S:1:pos:R:3:forces:R:3 energy=-13509.218387537423 stress="0.0 0.0 0.0 0.0 0.0 0.0 0.0 0.0 0.0" pbc="F F F"
C         21.65330      -17.41950       -0.40060
H         22.28260      -18.19030       -0.83690
C         20.28030      -17.43180       -0.60380
H         19.83230      -18.22220       -1.20070
C         19.48240      -16.43720       -0.04790
H         18.40750      -16.44470       -0.20580
C         20.07490      -15.42930        0.70620
H         19.46640      -14.64080        1.14000
C         21.44890      -15.41830        0.91380
H         21.87680      -14.59730        1.47530
C         22.25900      -16.41940        0.36810
N         24.46230      -17.35520       -0.13740
C         25.74680      -17.16120        0.28060
H         26.57450      -17.72330       -0.13460
C         25.78710      -16.20540        1.25350
H         26.59720      -15.78270        1.82980
N         24.48910      -15.79210        1.43870
C         23.72160      -16.50790        0.55290
C         24.09860      -14.85600        2.47840
H         24.94730      -14.72570        3.15280
H         23.25750      -15.24900        3.05590
H         23.83720      -13.87600        2.06520
