18
Properties=species:S:1:pos:R:3:forces:R:3 energy=-8899.747434115863 stress="0.0 0.0 0.0 0.0 0.0 0.0 0.0 0.0 0.0" pbc="F F F"
C          2.68480       -1.16550        0.99590
H          3.77420       -1.23070        1.07820
H          2.27110       -1.10790        2.00880
H          2.45090       -0.23360        0.47000
C          2.14130       -2.37880        0.25980
H          2.49740       -2.37920       -0.78350
H          2.49190       -3.30790        0.71180
N          0.68300       -2.43560        0.28380
C         -0.03000       -1.20670       -0.00520
H         -1.09900       -1.38960       -0.10310
H          0.32310       -0.75100       -0.94120
H          0.11420       -0.47700        0.79870
C          0.11000       -3.68200        0.25020
C         -1.40390       -3.75130        0.18120
H         -1.77660       -3.37970       -0.77900
H         -1.87420       -3.17180        0.98130
H         -1.68530       -4.79940        0.28380
O          0.78430       -4.70040        0.29320
