18
Properties=species:S:1:pos:R:3:forces:R:3 energy=-21768.385773786573 stress="0.0 0.0 0.0 0.0 0.0 0.0 0.0 0.0 0.0" pbc="F F F"
C         30.18160       -8.35310        0.01120
H         30.73260       -7.41800        0.02370
C         28.79330       -8.35400        0.03080
H         28.24480       -7.41600        0.05880
C         28.11960       -9.56890        0.01390
H         27.03480       -9.61610        0.02820
C         28.87660      -10.73630       -0.02210
H         28.39210      -11.71090       -0.03640
N         30.20480      -10.75300       -0.04110
C         30.85370       -9.57720       -0.02480
C         33.24320       -8.63780       -0.03810
H         32.97890       -7.58640       -0.01160
C         34.58680       -9.11580       -0.06740
H         35.46270       -8.47570       -0.06590
C         34.65020      -10.47860       -0.09790
H         35.53570      -11.10030       -0.12380
S         33.09250      -11.19920       -0.09150
C         32.32360       -9.65280       -0.04720
