15
Properties=species:S:1:pos:R:3:forces:R:3 energy=-7830.474692993978 stress="0.0 0.0 0.0 0.0 0.0 0.0 0.0 0.0 0.0" pbc="F F F"
C          2.47390       -0.80280        0.33970
H          3.54700       -0.66600        0.50460
H          1.94370       -0.14220        1.03540
H          2.24580       -0.48690       -0.68370
C          2.07520       -2.25320        0.55870
H          2.34600       -2.58350        1.57040
H          2.59630       -2.91910       -0.13440
N          0.64900       -2.42630        0.34350
H          0.04490       -1.62840        0.46880
C          0.10890       -3.67420        0.28650
C         -1.40270       -3.73470        0.18820
H         -1.79300       -4.25380        1.06840
H         -1.66820       -4.33100       -0.68870
H         -1.88120       -2.75400        0.11130
O          0.80020       -4.68070        0.30050
