19
Properties=species:S:1:pos:R:3:forces:R:3 energy=-12439.844083710312 stress="0.0 0.0 0.0 0.0 0.0 0.0 0.0 0.0 0.0" pbc="F F F"
C          5.60230      -15.07610        0.00230
H          6.13700      -14.12820       -0.01660
C          4.21250      -15.08720       -0.00930
H          3.66570      -14.14790       -0.02380
C          3.52360      -16.29780        0.00090
H          2.43680      -16.30650       -0.00400
C          4.23070      -17.49760        0.00820
H          3.69670      -18.44430        0.00490
C          5.62000      -17.48790        0.01140
H          6.18670      -18.41520       -0.00930
C          6.31580      -16.27750        0.03270
N          8.55250      -17.15620       -0.60610
C          9.84190      -16.78500       -0.31830
H         10.68550      -17.33110       -0.71910
C          9.86030      -15.69680        0.50770
H         10.66440      -15.12970        0.95260
N          8.53730      -15.38660        0.71680
H          8.17930      -14.67390        1.33280
C          7.78820      -16.28620        0.01550
