18
Properties=species:S:1:pos:R:3:forces:R:3 energy=-10939.15336913945 stress="0.0 0.0 0.0 0.0 0.0 0.0 0.0 0.0 0.0" pbc="F F F"
C         -3.08460        1.24670       -2.31290
H         -4.13490        1.45490       -2.49680
C         -2.09140        2.14380       -2.68320
H         -2.34200        3.08380       -3.17010
C         -0.76700        1.81620       -2.41700
H          0.04700        2.48430       -2.68820
C         -0.48560        0.60100       -1.79480
N         -1.43600       -0.26630       -1.43300
C         -2.70230        0.06250       -1.69130
H         -3.45190       -0.66470       -1.38120
C          0.93950        0.18410       -1.49650
H          1.62190        1.00410       -1.77270
H          1.04490       -0.00870       -0.42500
O          1.31520       -1.01270       -2.13350
C          1.30110       -0.91960       -3.53760
H          1.65180       -1.88040       -3.92400
H          0.28730       -0.73140       -3.92030
H          1.97010       -0.12360       -3.90330
