14
Properties=species:S:1:pos:R:3:forces:R:3 energy=-10306.634465491503 stress="0.0 0.0 0.0 0.0 0.0 0.0 0.0 0.0 0.0" pbc="F F F"
O          4.82610      -12.00140        0.00130
C          5.48920       -9.70460        0.00040
H          5.93350       -9.23420        0.88550
H          4.41180       -9.53050        0.00090
H          5.93260       -9.23480       -0.88540
C          5.73330      -11.20010        0.00080
N          7.53280      -12.92080        0.00070
C          8.89680      -12.88750        0.00010
H          9.47950      -13.79960        0.00020
C          9.35330      -11.59610       -0.00040
H         10.34790      -11.17500       -0.00090
N          8.22690      -10.81840       -0.00020
H          8.21020       -9.81090       -0.00050
C          7.14820      -11.66360        0.00040
