14
Properties=species:S:1:pos:R:3:forces:R:3 energy=-7010.172121682524 stress="0.0 0.0 0.0 0.0 0.0 0.0 0.0 0.0 0.0" pbc="F F F"
C          0.03340       -0.03850        0.01760
H          0.02620       -0.70450       -0.85520
H          0.06830       -0.67910        0.90920
C         -1.23420        0.81470        0.02350
H         -1.20650        1.48390       -0.84400
H         -1.23210        1.46060        0.91250
C         -2.50800       -0.02500        0.00060
H         -2.54640       -0.65410       -0.89640
H         -3.40360        0.60450        0.00630
H         -2.55920       -0.68800        0.87250
C          1.29850        0.79280       -0.02140
H          2.19520        0.16190       -0.03110
H          1.35230        1.46930        0.84180
F          1.30750        1.57310       -1.17160
