17
Properties=species:S:1:pos:R:3:forces:R:3 energy=-13416.39599962912 stress="0.0 0.0 0.0 0.0 0.0 0.0 0.0 0.0 0.0" pbc="F F F"
C         12.60130      -20.49040       -0.00000
H         13.18520      -19.57450       -0.00010
C         11.21390      -20.48730       -0.00010
H         10.66340      -19.55050       -0.00020
C         10.54180      -21.70440       -0.00000
H          9.45690      -21.75050       -0.00010
C         11.29440      -22.87680        0.00010
H         10.80540      -23.84960        0.00010
N         12.62510      -22.90060        0.00010
C         13.25460      -21.72300        0.00010
N         15.53240      -20.73870        0.00030
C         16.79340      -21.30740        0.00050
H         17.69410      -20.70930        0.00050
C         16.66900      -22.65240        0.00060
H         17.35420      -23.48560        0.00080
O         15.34330      -22.95250        0.00050
C         14.72550      -21.75480        0.00030
