22
Properties=species:S:1:pos:R:3:forces:R:3 energy=-13046.117851787212 stress="0.0 0.0 0.0 0.0 0.0 0.0 0.0 0.0 0.0" pbc="F F F"
C          2.19060       -3.45320       -0.99220
H          1.78690       -4.43800       -0.77450
C          1.42690       -2.32350       -0.71550
H          0.41530       -2.44720       -0.33800
C          1.94370       -1.04920       -0.96140
C          1.16610        0.22580       -0.76800
C          3.19680       -0.92880       -1.56540
H          3.56220        0.06540       -1.80650
C          3.96500       -2.05600       -1.82750
H          4.95200       -1.94630       -2.27000
C          3.46650       -3.32250       -1.53360
H          4.06420       -4.20610       -1.74030
N          0.02470        0.19560        0.00500
C         -0.82860        1.36840       -0.08070
H         -0.83120        1.74070       -1.10520
H         -1.84570        1.09500        0.21400
H         -0.47540        2.17820        0.57530
C         -0.04800       -0.48160        1.29000
H         -0.99730       -1.02430        1.37460
H          0.78170       -1.17730        1.42410
H         -0.00880        0.24430        2.11520
O          1.50480        1.24680       -1.35010
