20
Properties=species:S:1:pos:R:3:forces:R:3 energy=-13476.225362832245 stress="0.0 0.0 0.0 0.0 0.0 0.0 0.0 0.0 0.0" pbc="F F F"
C         15.88350      -25.27760        1.17290
H         15.36070      -25.29480        2.12570
C         17.27050      -25.30570        1.10550
H         17.86740      -25.32900        2.01340
C         17.87690      -25.31540       -0.14520
H         18.95730      -25.34350       -0.25230
C         17.06040      -25.29360       -1.27070
H         17.49450      -25.30680       -2.26860
N         15.72740      -25.25090       -1.22430
C         15.15510      -25.23020       -0.01690
C         11.57370      -24.10230       -0.39270
H         11.00310      -23.23980       -0.72670
C         12.96190      -24.08880       -0.43160
H         13.51120      -23.23000       -0.80910
C         13.65660      -25.21080        0.02340
N         13.04890      -26.31800        0.45950
C         11.71450      -26.31970        0.47570
H         11.25130      -27.23520        0.83850
C         10.93100      -25.24460        0.07040
H          9.84790      -25.30820        0.11470
