21
Properties=species:S:1:pos:R:3:forces:R:3 energy=-13945.452582678749 stress="0.0 0.0 0.0 0.0 0.0 0.0 0.0 0.0 0.0" pbc="F F F"
C         29.16750      -17.05530       -1.50610
H         29.65630      -17.64740       -2.27420
C         27.78780      -17.07900       -1.35570
H         27.17310      -17.68240       -2.01690
C         27.21600      -16.31220       -0.34940
H         26.14190      -16.29020       -0.19260
C         28.06260      -15.56980        0.46910
H         27.65780      -14.96110        1.27560
N         29.38770      -15.54820        0.34530
C         29.93130      -16.26640       -0.63910
N         32.26330      -16.39920        0.22120
C         33.50150      -16.34090       -0.35920
H         34.40280      -16.46810        0.22590
C         33.39210      -16.10270       -1.70110
H         34.12280      -15.98320       -2.48830
N         32.04590      -16.01550       -1.95850
C         31.41090      -16.21120       -0.76110
C         31.46730      -15.70070       -3.25210
H         32.11380      -14.98420       -3.76500
H         30.48580      -15.24320       -3.11480
H         31.36550      -16.59260       -3.88070
