14
Properties=species:S:1:pos:R:3:forces:R:3 energy=-12410.561742273467 stress="0.0 0.0 0.0 0.0 0.0 0.0 0.0 0.0 0.0" pbc="F F F"
C         -0.14460       -0.00180        0.18820
H          0.06310       -0.57450        1.09680
H          0.19240       -0.60780       -0.65790
C          0.60560        1.33020        0.21750
H          0.37000        1.89620       -0.69140
H          0.24090        1.93050        1.05920
C          2.11300        1.13330        0.33260
H          2.49980        0.55700       -0.51560
H          2.36940        0.59120        1.24990
H          2.63970        2.09230        0.35290
C         -1.65990        0.12890        0.07380
F         -2.06900        1.41110        0.01160
F         -2.12990       -0.48490       -1.03020
F         -2.28840       -0.43120        1.12620
