15
Properties=species:S:1:pos:R:3:forces:R:3 energy=-21142.039330407348 stress="0.0 0.0 0.0 0.0 0.0 0.0 0.0 0.0 0.0" pbc="F F F"
C         29.01050      -15.60090        0.36410
N         29.29510      -16.92590        0.08360
H         28.56300      -17.62120        0.13680
N         30.74800      -18.74940        0.16380
C         32.09080      -19.04340        0.08100
H         32.40740      -20.07800        0.15110
C         32.92250      -17.98790       -0.08630
H         34.00110      -17.99380       -0.17480
S         32.01440      -16.51530       -0.13510
C         30.57580      -17.46860        0.04840
O         29.89040      -14.76820        0.43940
C         27.53690      -15.30360        0.52920
H         26.98840      -15.56300       -0.38170
H         27.41730      -14.24000        0.73220
H         27.11090      -15.87980        1.35710
