14
Properties=species:S:1:pos:R:3:forces:R:3 energy=-7009.992216993477 stress="0.0 0.0 0.0 0.0 0.0 0.0 0.0 0.0 0.0" pbc="F F F"
C          0.03090       -0.02650       -0.00640
H          0.05450       -0.66510        0.88370
H          0.01740       -0.69770       -0.87380
C         -1.24200        0.81960        0.00030
H         -1.22820        1.48260        0.87660
H         -1.24670        1.47570       -0.88080
C         -2.50880       -0.02990        0.01740
H         -2.54090       -0.66920        0.90740
H         -3.41020        0.59140        0.01870
H         -2.55340       -0.68410       -0.86130
C          1.32180        0.79640        0.00340
H          1.94120        0.59300       -0.87660
H          1.10910        1.87290        0.02620
F          2.07880        0.49680        1.12880
