18
Properties=species:S:1:pos:R:3:forces:R:3 energy=-21768.51099589558 stress="0.0 0.0 0.0 0.0 0.0 0.0 0.0 0.0 0.0" pbc="F F F"
C         21.79650      -23.56740        0.02170
H         22.33030      -24.51390        0.03990
C         20.40630      -23.54650        0.01270
H         19.85250      -24.48130        0.01960
C         19.72640      -22.33170       -0.00680
H         18.63940      -22.31670       -0.01580
C         20.43860      -21.13590       -0.01340
H         19.90910      -20.18670       -0.02700
C         21.83000      -21.15300        0.00020
H         22.39180      -20.22260        0.00490
C         22.51560      -22.36920        0.01640
N         24.75280      -21.81470        0.88770
C         26.08070      -22.02360        0.60370
H         26.82550      -21.62100        1.27800
C         26.34480      -22.73080       -0.52790
H         27.30510      -23.00700       -0.94120
S         24.87010      -23.17550       -1.28690
C         23.99900      -22.37230       -0.01320
