14
Properties=species:S:1:pos:R:3:forces:R:3 energy=-12410.658117387591 stress="0.0 0.0 0.0 0.0 0.0 0.0 0.0 0.0 0.0" pbc="F F F"
C         -0.14660        0.00090        0.22690
H          0.16050       -0.57290       -0.65450
H          0.07800       -0.60770        1.10790
C          0.60320        1.33320        0.25120
H          0.27330        1.92030        1.11660
H          0.33140        1.90830       -0.63960
C          2.11390        1.13180        0.30450
H          2.40320        0.57080        1.20060
H          2.46760        0.57210       -0.56890
H          2.64410        2.08910        0.32440
C         -1.65230        0.14740        0.14790
F         -2.20220        0.23040        1.37800
F         -2.22420       -0.90100       -0.47020
F         -2.02550        1.26480       -0.50730
