15
Properties=species:S:1:pos:R:3:forces:R:3 energy=-21141.90921101576 stress="0.0 0.0 0.0 0.0 0.0 0.0 0.0 0.0 0.0" pbc="F F F"
C         28.04010      -17.36390       -0.15460
N         29.33150      -16.86400        0.04840
H         29.31660      -15.87210        0.24740
N         30.76750      -18.75560       -0.21970
C         32.11900      -19.02880       -0.16800
H         32.45300      -20.04400       -0.34650
C         32.93940      -17.98940        0.10660
H         34.01610      -17.98370        0.19290
S         31.99620      -16.55250        0.32200
C         30.55860      -17.50010        0.01710
O         27.11830      -16.58080       -0.06940
C         27.86830      -18.82370       -0.46270
H         28.41280      -19.09700       -1.36940
H         26.80170      -19.01120       -0.58490
H         28.27760      -19.44190        0.33950
