17
Properties=species:S:1:pos:R:3:forces:R:3 energy=-12850.384527237653 stress="0.0 0.0 0.0 0.0 0.0 0.0 0.0 0.0 0.0" pbc="F F F"
C         15.73050      -21.97070        0.00420
H         14.77510      -21.45740        0.02240
C         15.81420      -23.36380        0.01180
H         14.91360      -23.97200        0.03620
C         17.05490      -23.96920       -0.00530
H         17.15530      -25.05210        0.01140
C         18.20110      -23.15360       -0.04190
N         18.13150      -21.82200       -0.05920
C         16.91640      -21.25890       -0.02770
H         16.90180      -20.17110       -0.03700
N         19.44950      -23.76450        0.01130
H         19.44200      -24.77280        0.07290
C         20.70010      -23.33810       -0.48390
N         20.83830      -22.00580       -0.66330
H         21.71630      -21.68460       -1.03660
H         20.05330      -21.38370       -0.51650
O         21.56970      -24.16950       -0.67690
