14
Properties=species:S:1:pos:R:3:forces:R:3 energy=-31478.18652817905 stress="0.0 0.0 0.0 0.0 0.0 0.0 0.0 0.0 0.0" pbc="F F F"
C          2.01330      -24.63630       -0.89400
H          0.95890      -24.66920       -1.13810
C          2.80880      -25.66390       -0.49490
H          2.48200      -26.68790       -0.36520
N          4.12080      -25.35210       -0.24830
C          4.31160      -24.08960       -0.44540
S          2.93540      -23.18890       -0.97780
S          5.89970      -23.29040       -0.20340
C          5.85660      -22.78230        1.51050
H          5.00000      -22.12350        1.66060
H          6.78740      -22.24100        1.69220
H          5.80110      -23.66800        2.14640
O          5.87840      -22.07800       -1.01020
O          6.94420      -24.29090       -0.35090
