17
Properties=species:S:1:pos:R:3:forces:R:3 energy=-8892.97413801936 stress="0.0 0.0 0.0 0.0 0.0 0.0 0.0 0.0 0.0" pbc="F F F"
C          1.55700       -1.85020       -2.30630
H          1.75380       -2.44530       -3.19470
C          2.46140       -1.85210       -1.24850
H          3.37100       -2.44440       -1.30620
C          2.18820       -1.09310       -0.11460
H          2.88490       -1.09060        0.72030
C          1.02620       -0.33150       -0.03870
H          0.82370        0.25610        0.85480
C          0.12410       -0.31430       -1.10720
C          0.39150       -1.09530       -2.23050
H         -0.33080       -1.09120       -3.04310
N         -1.08200        0.45250       -1.07830
H         -0.92850        1.30110       -0.54490
C         -2.23550       -0.26210       -0.53690
H         -2.45740       -1.12340       -1.17710
H         -2.10080       -0.63060        0.49330
H         -3.10780        0.39930       -0.56240
