15
Properties=species:S:1:pos:R:3:forces:R:3 energy=-5346.417215857479 stress="0.0 0.0 0.0 0.0 0.0 0.0 0.0 0.0 0.0" pbc="F F F"
C          4.04370        0.51350       -0.17960
H          5.10940        0.71360       -0.02550
H          3.61100        1.37020       -0.70790
C          3.83440       -0.78420       -0.96890
H          4.34680       -0.71420       -1.93500
H          4.30740       -1.60990       -0.41740
C          2.37510       -1.10490       -1.18120
H          1.91290       -0.77150       -2.11180
C          1.60920       -1.66820       -0.24940
H          2.07600       -1.95150        0.69710
C          0.14420       -1.95360       -0.38730
H         -0.05780       -3.02600       -0.28050
H         -0.43190       -1.44060        0.39230
H          3.56630        0.45250        0.80460
H         -0.23690       -1.63000       -1.36170
