11
Properties=species:S:1:pos:R:3:forces:R:3 energy=-7301.315821125982 stress="0.0 0.0 0.0 0.0 0.0 0.0 0.0 0.0 0.0" pbc="F F F"
C          0.79840       -2.06620        1.07840
H          0.39270       -1.41000        1.84840
H          0.43970       -1.76730        0.09000
O          0.33550       -3.37690        1.40490
C          0.73550       -4.34390        0.55990
H          1.89100       -2.03300        1.08110
C          0.21070       -5.69710        0.96580
H         -0.39690       -5.64140        1.87030
H          1.05600       -6.37220        1.12270
O          1.43240       -4.13500       -0.40460
H         -0.37870       -6.10960        0.14270
