14
Properties=species:S:1:pos:R:3:forces:R:3 energy=-9710.143232219029 stress="0.0 0.0 0.0 0.0 0.0 0.0 0.0 0.0 0.0" pbc="F F F"
C         -0.12630       -0.09430       -0.06930
H         -0.20050        0.41800       -1.03390
H         -0.23210        0.66590        0.71130
C          1.22920       -0.79010        0.05200
H          1.31170       -1.56200       -0.72550
H          1.28270       -1.31590        1.01530
C          2.39560        0.18540       -0.06670
H          2.37860        0.70130       -1.03360
H          3.35870       -0.32710        0.02210
H          2.34920        0.94950        0.71790
C         -1.32130       -1.03460        0.04130
H         -1.04640       -2.08730        0.17620
F         -2.09570       -0.95600       -1.08080
F         -2.11230       -0.68030        1.09640
