11
Properties=species:S:1:pos:R:3:forces:R:3 energy=-7300.857359890483 stress="0.0 0.0 0.0 0.0 0.0 0.0 0.0 0.0 0.0" pbc="F F F"
C          0.32560       -3.40140        2.71030
H          0.05940       -2.41780        3.10060
H          1.33830       -3.66350        3.04300
O          0.25000       -3.29470        1.29580
C          0.72730       -4.33520        0.55620
H         -0.38300       -4.14380        3.09700
C          0.22230       -5.70350        0.95810
H         -0.86480       -5.68600        1.09060
H          0.67720       -6.03000        1.90080
O          1.40740       -4.12560       -0.41090
H          0.48440       -6.41680        0.17600
