14
Properties=species:S:1:pos:R:3:forces:R:3 energy=-31478.062120592942 stress="0.0 0.0 0.0 0.0 0.0 0.0 0.0 0.0 0.0" pbc="F F F"
C          1.99200      -24.67930       -0.89280
H          0.94370      -24.74950       -1.14760
C          2.81230      -25.65710       -0.43390
H          2.51650      -26.68180       -0.25190
N          4.11010      -25.28850       -0.18810
C          4.28400      -24.04070       -0.46340
S          2.86310      -23.20540       -1.03820
S          5.90120      -23.30060       -0.14380
C          5.91790      -21.84340       -1.16370
H          5.11780      -21.17120       -0.85190
H          6.89130      -21.37860       -0.99690
H          5.81940      -22.14350       -2.20790
O          5.91160      -22.86660        1.24710
O          6.90700      -24.21400       -0.66340
