18
Properties=species:S:1:pos:R:3:forces:R:3 energy=-8899.731070215787 stress="0.0 0.0 0.0 0.0 0.0 0.0 0.0 0.0 0.0" pbc="F F F"
C          2.74290       -1.07810        0.21100
H          3.83450       -1.14780        0.23860
H          2.44640       -0.29200        0.91350
H          2.44960       -0.77460       -0.80020
C          2.12820       -2.41850        0.57280
H          2.53420       -3.21670       -0.05180
H          2.37550       -2.67800        1.61440
N          0.67870       -2.44200        0.38910
C         -0.06460       -1.25230        0.75660
H         -1.13120       -1.39740        0.59360
H          0.25120       -0.40520        0.14110
H          0.08960       -0.98120        1.81170
C          0.10670       -3.68460        0.27640
C         -1.40660       -3.75340        0.19900
H         -1.80160       -3.12530       -0.60560
H         -1.86920       -3.43840        1.14000
H         -1.67480       -4.79210        0.00620
O          0.78780       -4.69780        0.22010
