18
Properties=species:S:1:pos:R:3:forces:R:3 energy=-6416.032345224262 stress="0.0 0.0 0.0 0.0 0.0 0.0 0.0 0.0 0.0" pbc="F F F"
C          3.96560        0.51220       -0.04060
H          5.02290        0.72270        0.15170
H          3.45190        0.46550        0.92630
C          3.79870       -0.79470       -0.82940
H          4.22420       -1.62280       -0.24530
H          4.38030       -0.73680       -1.75720
C          2.35030       -1.10520       -1.15750
C          1.88060       -0.67180       -2.52270
H          2.01730        0.41080       -2.65300
H          0.82740       -0.89820       -2.70370
H          2.46960       -1.16200       -3.30840
C          1.57240       -1.65110       -0.21850
H          2.03980       -1.86450        0.74640
C          0.12050       -2.00970       -0.31580
H         -0.46850       -1.45570        0.42590
H         -0.02830       -3.07540       -0.10360
H          3.54670        1.35840       -0.59800
H         -0.30280       -1.80390       -1.30140
