10
Properties=species:S:1:pos:R:3:forces:R:3 energy=-6263.456540921778 stress="0.0 0.0 0.0 0.0 0.0 0.0 0.0 0.0 0.0" pbc="F F F"
O         -1.04870       -3.65810        2.14280
H         -1.71930       -3.53820        1.45740
C          0.20800       -3.41260        1.57560
H          0.22950       -2.46410        1.02140
H          0.89600       -3.35150        2.43030
O          0.66630       -4.40480        0.69530
C          0.22270       -5.72050        0.96370
H          0.66700       -6.35360        0.19310
H          0.56010       -6.06310        1.95300
H         -0.86950       -5.80350        0.92530
