18
Properties=species:S:1:pos:R:3:forces:R:3 energy=-8457.013296936504 stress="0.0 0.0 0.0 0.0 0.0 0.0 0.0 0.0 0.0" pbc="F F F"
C          5.52410      -23.17900       -0.05180
C          6.81510      -22.37730       -0.05210
H          6.81140      -21.70990       -0.92510
C          8.09960      -23.19680       -0.05370
H          8.15980      -23.83710       -0.94060
H          8.16110      -23.83850        0.83210
H          8.97540      -22.54040       -0.05390
H          6.81280      -21.71130        0.82190
C          5.48990      -24.57460       -0.05280
H          6.41590      -25.14420       -0.05400
C          4.27770      -25.26040       -0.05240
H          4.28050      -26.34810       -0.05320
C          3.07500      -24.56440       -0.05090
H          2.12970      -25.10090       -0.05060
C          3.09370      -23.17220       -0.04990
H          2.16040      -22.61330       -0.04880
C          4.30560      -22.49250       -0.05030
H          4.30920      -21.40310       -0.04950
