18
Properties=species:S:1:pos:R:3:forces:R:3 energy=-6416.0313639757105 stress="0.0 0.0 0.0 0.0 0.0 0.0 0.0 0.0 0.0" pbc="F F F"
C          3.37910       -0.25700        0.38880
H          3.00170       -1.04290        1.05230
H          2.58520        0.48530        0.25380
C          3.82520       -0.84200       -0.95580
H          2.94710       -1.31420       -1.41960
C          4.88710       -1.92190       -0.74850
H          4.48540       -2.73600       -0.13530
H          5.76320       -1.51920       -0.22590
H          5.22200       -2.34750       -1.70110
C          4.25750        0.27200       -1.87790
H          3.44530        0.94070       -2.17900
C          5.49500        0.54500       -2.28480
H          6.31590       -0.10260       -1.98150
C          5.86850        1.70380       -3.15980
H          6.34040        1.35840       -4.08730
H          6.59420        2.35480       -2.65830
H          4.22050        0.23530        0.88890
H          4.99340        2.30640       -3.42500
