20
Properties=species:S:1:pos:R:3:forces:R:3 energy=-12003.161607167183 stress="0.0 0.0 0.0 0.0 0.0 0.0 0.0 0.0 0.0" pbc="F F F"
C         13.26480      -34.79700       -0.00960
H         13.79910      -33.84900        0.00160
C         11.87510      -34.79380        0.00440
H         11.34090      -33.84670        0.00680
C         11.16980      -35.99480        0.01100
H         10.08310      -35.99060        0.01850
C         11.86590      -37.19990        0.01000
H         11.32490      -38.14230        0.01610
C         13.25520      -37.20260        0.00310
H         13.79650      -38.14590       -0.00560
C         13.97580      -36.00360       -0.01130
C         16.32680      -36.95390        0.51640
H         16.05380      -37.84560        1.06630
C         17.64320      -36.49540        0.24610
H         18.56920      -36.97800        0.52700
C         17.52890      -35.31550       -0.44420
H         18.28490      -34.65150       -0.83930
N         16.19660      -35.03730       -0.58490
H         15.81960      -34.29040       -1.14550
C         15.44400      -36.03660       -0.01350
