22
Properties=species:S:1:pos:R:3:forces:R:3 energy=-13509.17450033694 stress="0.0 0.0 0.0 0.0 0.0 0.0 0.0 0.0 0.0" pbc="F F F"
C         21.64000      -17.44230       -0.36760
H         22.24840      -18.24550       -0.77650
C         20.25860      -17.44490       -0.52910
H         19.78020      -18.25620       -1.07230
C         19.49150      -16.41360        0.00490
H         18.41150      -16.41700       -0.12120
C         20.10840      -15.38030        0.70430
H         19.51310      -14.57480        1.12680
C         21.48960      -15.37460        0.86370
H         21.98090      -14.57370        1.41140
C         22.26570      -16.40240        0.32150
N         24.41410      -17.10540        1.36840
C         25.72870      -16.75580        1.18100
H         26.51660      -17.18840        1.78360
C         25.84210      -15.83650        0.17710
H         26.68960      -15.32880       -0.26190
N         24.56050      -15.61130       -0.26930
C         23.73970      -16.40190        0.48700
C         24.17550      -14.71110       -1.34080
H         24.20250      -13.66670       -1.01120
H         24.85670      -14.84030       -2.18610
H         23.16480      -14.95750       -1.66890
