18
Properties=species:S:1:pos:R:3:forces:R:3 energy=-8457.061568006071 stress="0.0 0.0 0.0 0.0 0.0 0.0 0.0 0.0 0.0" pbc="F F F"
C          5.50080      -23.16620       -0.04370
C          6.80850      -22.40450       -0.02160
H          6.81200      -21.66930       -0.83720
C          7.06690      -21.68340        1.30560
H          6.27390      -20.95930        1.52310
H          7.10520      -22.39560        2.13600
H          8.01830      -21.14160        1.27670
H          7.63310      -23.09630       -0.23010
C          4.28010      -22.48610       -0.05170
H          4.27640      -21.39660       -0.04760
C          3.07580      -23.18120       -0.06690
H          2.13610      -22.63380       -0.07670
C          3.07200      -24.57350       -0.06650
H          2.13060      -25.11780       -0.07620
C          4.28010      -25.26260       -0.05310
H          4.28870      -26.35050       -0.05280
C          5.48270      -24.56110       -0.04370
H          6.42720      -25.10300       -0.03570
