18
Properties=species:S:1:pos:R:3:forces:R:3 energy=-12875.97897687655 stress="0.0 0.0 0.0 0.0 0.0 0.0 0.0 0.0 0.0" pbc="F F F"
C         13.91350      -15.03740       -0.01540
H         14.46370      -14.10060       -0.01780
C         12.52540      -15.05600       -0.02270
H         11.96090      -14.12760       -0.04100
C         11.87500      -16.28310       -0.00950
H         10.79090      -16.35170       -0.01720
C         12.65170      -17.43730        0.01380
H         12.18220      -18.41930        0.02320
N         13.98360      -17.43760        0.02690
C         14.60140      -16.25280        0.01860
N         16.87690      -16.62710        0.99770
C         18.15210      -16.39720        0.54170
H         19.01340      -16.61530        1.15940
C         18.13120      -15.88880       -0.72760
H         18.91130      -15.58950       -1.41250
N         16.79960      -15.79990       -1.05270
H         16.41380      -15.48560       -1.92930
C         16.08770      -16.26660        0.01380
