14
Properties=species:S:1:pos:R:3:forces:R:3 energy=-31478.214667283886 stress="0.0 0.0 0.0 0.0 0.0 0.0 0.0 0.0 0.0" pbc="F F F"
C          2.01370      -24.64600       -0.91800
H          0.96710      -24.68630       -1.19250
C          2.80260      -25.66980       -0.49570
H          2.47780      -26.69510       -0.37460
N          4.10530      -25.34880       -0.20740
C          4.29580      -24.08750       -0.42450
S          2.92670      -23.19100       -0.96590
S          5.88290      -23.29120       -0.18600
C          6.21710      -23.56960        1.54340
H          5.46000      -23.06320        2.14460
H          7.20570      -23.14910        1.74130
H          6.21900      -24.64740        1.72390
O          5.65730      -21.86860       -0.39270
O          6.88310      -24.02260       -0.95110
