19
Properties=species:S:1:pos:R:3:forces:R:3 energy=-11976.97858114945 stress="0.0 0.0 0.0 0.0 0.0 0.0 0.0 0.0 0.0" pbc="F F F"
C         -0.13870        0.16100       -1.57200
N         -1.48610        0.16620       -1.13580
H         -1.61850        0.19230       -0.13580
C          0.84920        0.69520       -0.74200
H          0.57220        1.15750        0.20330
C          2.18340        0.64840       -1.12850
H          2.94360        1.07790       -0.48080
C          2.54530        0.04690       -2.33040
H          3.58870        0.00480       -2.63090
C          1.55870       -0.50410       -3.14320
H          1.83090       -0.97780       -4.08350
C          0.21940       -0.45050       -2.77310
H         -0.55390       -0.86290       -3.41210
C         -2.55580        0.54830       -1.91700
C         -3.85850        0.68970       -1.15140
H         -3.80170        1.51070       -0.42770
H         -4.09210       -0.22880       -0.60270
H         -4.65630        0.89960       -1.86320
O         -2.46110        0.73580       -3.11410
