15
Properties=species:S:1:pos:R:3:forces:R:3 energy=-9869.850234495269 stress="0.0 0.0 0.0 0.0 0.0 0.0 0.0 0.0 0.0" pbc="F F F"
O         11.76880      -31.02270        0.80310
C         12.19140      -30.36590       -1.45500
H         12.85850      -29.53740       -1.72150
H         11.15950      -30.01240       -1.42230
H         12.30470      -31.12930       -2.23310
C         12.56490      -30.94210       -0.10680
C         14.39340      -32.78050       -0.03460
H         13.75470      -33.65330       -0.07590
C         15.81480      -32.75300       -0.01430
H         16.47950      -33.60600       -0.03680
C         16.19480      -31.43520        0.03890
H         17.17550      -30.98030        0.07030
N         15.06140      -30.66740        0.04390
H         15.04320      -29.66100        0.10950
C         13.95390      -31.48150        0.02290
