16
Properties=species:S:1:pos:R:3:forces:R:3 energy=-20705.16748255307 stress="0.0 0.0 0.0 0.0 0.0 0.0 0.0 0.0 0.0" pbc="F F F"
C         28.60590       -4.72080       -1.10120
N         29.43440       -4.75190        0.00960
H         29.06380       -4.25720        0.81270
C         31.09340       -6.59950       -0.02960
H         30.36610       -7.40160       -0.08250
C         32.50480       -6.78560       -0.02010
H         32.98750       -7.75610       -0.07750
C         33.18520       -5.61040        0.07000
H         34.25630       -5.45730        0.09760
S         32.12510       -4.25500        0.15720
C         30.72660       -5.28810        0.04560
O         27.49860       -4.23170       -1.01560
C         29.17560       -5.29800       -2.37380
H         30.21440       -4.98730       -2.52260
H         28.55520       -4.97110       -3.20860
H         29.16430       -6.39330       -2.33590
