20
Properties=species:S:1:pos:R:3:forces:R:3 energy=-13476.170165762256 stress="0.0 0.0 0.0 0.0 0.0 0.0 0.0 0.0 0.0" pbc="F F F"
C         15.91090      -24.21480       -0.67730
H         15.42900      -23.43050       -1.25240
C         17.29650      -24.27720       -0.63990
H         17.89200      -23.53550       -1.16640
C         17.90560      -25.29680        0.07920
H         18.98570      -25.38600        0.14040
C         17.08250      -26.21550        0.72260
H         17.51180      -27.03700        1.29470
N         15.75440      -26.17200        0.69010
C         15.16930      -25.17800        0.01420
C         11.55410      -24.12590       -0.42260
H         10.96660      -23.28590       -0.78500
C         12.94030      -24.07220       -0.45040
H         13.43070      -23.17690       -0.81930
C         13.67150      -25.16930        0.01600
N         13.07570      -26.25900        0.51110
C         11.74720      -26.29910        0.52560
H         11.30910      -27.21160        0.92800
C         10.93400      -25.26550        0.07180
H          9.85300      -25.35580        0.11150
