16
Properties=species:S:1:pos:R:3:forces:R:3 energy=-11813.43777463906 stress="0.0 0.0 0.0 0.0 0.0 0.0 0.0 0.0 0.0" pbc="F F F"
C         13.30580       -9.50420       -0.56570
N         13.45190      -10.78780       -0.08950
H         12.65010      -11.40310       -0.09760
N         14.79890      -12.76030       -0.15380
C         16.16060      -12.97260       -0.07700
H         16.57680      -13.96940       -0.12510
C         16.83510      -11.79550        0.05690
H         17.88580      -11.56380        0.14620
N         15.85940      -10.81850        0.07980
H         15.94180       -9.81830       -0.03800
C         14.67610      -11.46380       -0.04940
O         14.26350       -8.76530       -0.72760
C         11.87290       -9.08670       -0.81630
H         11.27810       -9.18570        0.09750
H         11.41030       -9.71310       -1.58640
H         11.86700       -8.04740       -1.14390
