18
Properties=species:S:1:pos:R:3:forces:R:3 energy=-6416.0457261065985 stress="0.0 0.0 0.0 0.0 0.0 0.0 0.0 0.0 0.0" pbc="F F F"
C          4.37060       -1.04260        0.50480
H          5.44050       -0.81420        0.53940
H          4.24790       -2.07880        0.83920
C          3.83750       -0.83680       -0.91260
H          4.40600       -1.47050       -1.60940
H          4.04850        0.19390       -1.22930
C          2.36340       -1.09970       -1.14100
C          1.88310       -0.67260       -2.50800
H          2.01120        0.40890       -2.64500
H          0.83110       -0.90580       -2.68360
H          2.46790       -1.16430       -3.29660
C          1.58270       -1.67710       -0.22440
H          2.02990       -1.94210        0.73180
C          0.12600       -2.01310       -0.33580
H         -0.45110       -1.49460        0.44020
H         -0.03550       -3.08660       -0.17720
H          3.87110       -0.38680        1.22730
H         -0.30280       -1.74920       -1.30440
