15
Properties=species:S:1:pos:R:3:forces:R:3 energy=-9869.965606297545 stress="0.0 0.0 0.0 0.0 0.0 0.0 0.0 0.0 0.0" pbc="F F F"
O         11.66390      -31.37710        0.59450
C         12.31900      -29.96330       -1.21630
H         12.74440      -30.33490       -2.15420
H         11.24460      -29.80490       -1.32060
H         12.80350      -29.00180       -1.00370
C         12.56730      -30.95020       -0.09460
C         14.38090      -32.77660       -0.01460
H         13.72960      -33.64100       -0.02000
C         15.80020      -32.75790       -0.03300
H         16.45950      -33.61480       -0.06720
C         16.19040      -31.44110       -0.00050
H         17.17630      -30.99650       -0.00080
N         15.06520      -30.66610        0.02630
H         15.05310      -29.66000        0.09230
C         13.94940      -31.47270        0.05460
