15
Properties=species:S:1:pos:R:3:forces:R:3 energy=-5346.427472809428 stress="0.0 0.0 0.0 0.0 0.0 0.0 0.0 0.0 0.0" pbc="F F F"
C          4.67230       -1.99390       -0.46050
H          5.72530       -1.71320       -0.35810
H          4.32060       -2.32210        0.52280
C          3.85010       -0.81130       -0.98530
H          3.96900        0.03900       -0.29700
H          4.26720       -0.47960       -1.94250
C          2.38120       -1.11540       -1.16840
H          1.91910       -0.82560       -2.11510
C          1.61030       -1.68000       -0.24140
H          2.05250       -1.97730        0.71050
C          0.14220       -1.94440       -0.39720
H         -0.08260       -3.01040       -0.27020
H         -0.43860       -1.40580        0.36160
H          4.61180       -2.85030       -1.13970
H         -0.21450       -1.63380       -1.38490
