12
Properties=species:S:1:pos:R:3:forces:R:3 energy=-6760.291161844649 stress="0.0 0.0 0.0 0.0 0.0 0.0 0.0 0.0 0.0" pbc="F F F"
C         -0.89050       -2.52740        0.56510
H         -1.16830       -1.64370        1.14680
H         -1.79370       -3.12530        0.36090
H         -0.47240       -2.19220       -0.38920
N          0.15980       -3.24750        1.28000
H         -0.18910       -3.55260        2.18140
C          0.72700       -4.32880        0.56440
C          0.20890       -5.70580        0.93880
H          0.24100       -5.87330        2.02200
H          0.82470       -6.45070        0.43360
H         -0.83330       -5.82290        0.61540
O          1.47260       -4.13920       -0.36870
