17
Properties=species:S:1:pos:R:3:forces:R:3 energy=-8893.056618700453 stress="0.0 0.0 0.0 0.0 0.0 0.0 0.0 0.0 0.0" pbc="F F F"
C          1.54550       -1.87020       -2.29110
H          1.73640       -2.48430       -3.16810
C          2.42830       -1.89480       -1.21570
H          3.31400       -2.52370       -1.24410
C          2.15960       -1.10700       -0.10070
H          2.83620       -1.11670        0.75070
C          1.03030       -0.29730       -0.06070
H          0.81580        0.30430        0.81970
C          0.14800       -0.25890       -1.14490
C          0.41080       -1.06900       -2.25640
H         -0.27910       -1.06690       -3.09920
N         -1.03920        0.50050       -1.06860
H         -1.62610        0.31330       -1.87180
C         -0.91730        1.93350       -0.84230
H         -0.41920        2.12160        0.11450
H         -1.92210        2.36230       -0.77390
H         -0.35660        2.46820       -1.62650
