14
Properties=species:S:1:pos:R:3:forces:R:3 energy=-4310.575181545673 stress="0.0 0.0 0.0 0.0 0.0 0.0 0.0 0.0 0.0" pbc="F F F"
C          0.18530       -3.48680        1.59480
H         -0.15340       -4.03270        0.70620
H          0.96600       -4.08370        2.07750
C          0.69350       -2.09630        1.22210
H          1.56050       -2.18650        0.55320
C         -0.37170       -1.23450        0.54530
H         -0.73160       -1.75040       -0.35560
H         -1.23870       -1.14430        1.21420
C          0.13650        0.15600        0.17260
H          0.98550        0.09200       -0.51850
H         -0.64420        0.75290       -0.31010
H          0.47530        0.70190        1.06120
H          1.05350       -1.58040        2.12300
H         -0.66370       -3.42270        2.28590
