16
Properties=species:S:1:pos:R:3:forces:R:3 energy=-11813.123047143403 stress="0.0 0.0 0.0 0.0 0.0 0.0 0.0 0.0 0.0" pbc="F F F"
C         12.71870      -10.49470       -1.14670
N         13.46920      -10.74460       -0.01360
H         12.96530      -10.62050        0.85530
N         14.80950      -12.76680       -0.00400
C         16.16410      -12.97660       -0.00040
H         16.57170      -13.98000       -0.00650
C         16.84480      -11.79540        0.01770
H         17.90110      -11.56480        0.02980
N         15.87090      -10.82480        0.02440
H         16.00470       -9.82570        0.04840
C         14.66840      -11.46510        0.00720
O         11.60980      -10.00960       -1.05030
C         13.36710      -10.84810       -2.46680
H         14.36580      -10.41120       -2.55480
H         12.72410      -10.47980       -3.26710
H         13.47640      -11.93340       -2.55670
