22
Properties=species:S:1:pos:R:3:forces:R:3 energy=-13509.259103730514 stress="0.0 0.0 0.0 0.0 0.0 0.0 0.0 0.0 0.0" pbc="F F F"
C         21.47050      -15.40110        0.87180
H         21.93150      -14.57850        1.41070
C         20.09220      -15.40840        0.69220
H         19.49290      -14.60980        1.12010
C         19.48550      -16.43390       -0.02710
H         18.40740      -16.44350       -0.16250
C         20.27000      -17.44010       -0.58440
H         19.80580      -18.23630       -1.16070
C         21.64850      -17.42710       -0.41470
H         22.27010      -18.19570       -0.86710
C         22.26200      -16.42490        0.34080
N         24.54230      -16.95440       -0.42590
C         25.80680      -16.75630        0.05740
H         26.68220      -17.05700       -0.50410
C         25.75820      -16.16620        1.28750
H         26.52400      -15.86270        1.98660
N         24.42440      -15.98760        1.56980
C         23.72980      -16.45910        0.48700
C         23.91920      -15.50780        2.84270
H         24.63200      -15.77550        3.62610
H         22.96450      -15.98860        3.06780
H         23.79250      -14.41950        2.84830
