14
Properties=species:S:1:pos:R:3:forces:R:3 energy=-10306.564295238917 stress="0.0 0.0 0.0 0.0 0.0 0.0 0.0 0.0 0.0" pbc="F F F"
O          4.84050      -11.80980        0.43270
C          5.47900       -9.98220       -0.97210
H          5.90460       -9.08430       -0.50680
H          4.40130       -9.84640       -1.08120
H          5.94800      -10.09170       -1.95590
C          5.73370      -11.20720       -0.11740
N          7.53710      -12.93790       -0.02970
C          8.90420      -12.89660       -0.00460
H          9.49150      -13.80580        0.00230
C          9.35210      -11.60250        0.00930
H         10.34310      -11.17330        0.03210
N          8.21900      -10.83200       -0.01680
H          8.18430       -9.82530        0.02200
C          7.14840      -11.68330       -0.02220
