14
Properties=species:S:1:pos:R:3:forces:R:3 energy=-7010.073196512752 stress="0.0 0.0 0.0 0.0 0.0 0.0 0.0 0.0 0.0" pbc="F F F"
C          0.03050       -0.02000        0.02650
H          0.05190       -0.62870       -0.88590
H          0.03400       -0.71870        0.87130
C         -1.24450        0.82250        0.02660
H         -1.23120        1.49340       -0.84300
H         -1.26050        1.46900        0.91490
C         -2.50850       -0.03250       -0.00700
H         -2.53600       -0.66020       -0.90530
H         -3.41170        0.58620       -0.00350
H         -2.55430       -0.69810        0.86290
C          1.30520        0.81120        0.02040
H          1.64670        1.05750        1.03240
H          1.14740        1.75110       -0.52550
F          2.31780        0.12240       -0.63140
