18
Properties=species:S:1:pos:R:3:forces:R:3 energy=-8457.013298990836 stress="0.0 0.0 0.0 0.0 0.0 0.0 0.0 0.0 0.0" pbc="F F F"
C          5.52410      -23.17910       -0.05110
C          6.81510      -22.37730       -0.05120
H          6.81210      -21.71060       -0.92460
C          8.09970      -23.19690       -0.05130
H          8.16050      -23.83780       -0.93770
H          8.16060      -23.83790        0.83510
H          8.97550      -22.54040       -0.05130
H          6.81220      -21.71070        0.82230
C          4.30560      -22.49250       -0.05110
H          4.30930      -21.40310       -0.05100
C          3.09370      -23.17220       -0.05100
H          2.16050      -22.61330       -0.05100
C          3.07500      -24.56440       -0.05110
H          2.12970      -25.10090       -0.05110
C          4.27770      -25.26040       -0.05110
H          4.28050      -26.34810       -0.05120
C          5.48990      -24.57470       -0.05120
H          6.41590      -25.14430       -0.05120
