14
Properties=species:S:1:pos:R:3:forces:R:3 energy=-7010.126465391964 stress="0.0 0.0 0.0 0.0 0.0 0.0 0.0 0.0 0.0" pbc="F F F"
C          0.02930       -0.03690        0.02020
H          0.02580       -0.66660       -0.88010
H          0.04090       -0.72000        0.88000
C         -1.23760        0.81920        0.02280
H         -1.21170        1.48600       -0.84540
H         -1.23890        1.46670        0.90980
C         -2.50710       -0.02720       -0.00210
H         -2.54120       -0.65650       -0.89910
H         -3.40500        0.59880        0.00250
H         -2.55560       -0.68970        0.87030
C          1.30760        0.78610        0.04760
H          2.17220        0.20450       -0.29270
H          1.51040        1.15500        1.06080
F          1.18210        1.90180       -0.77140
