23
Properties=species:S:1:pos:R:3:forces:R:3 energy=-24888.711692887977 stress="0.0 0.0 0.0 0.0 0.0 0.0 0.0 0.0 0.0" pbc="F F F"
C          2.89030       -3.68890       -1.43260
H          2.94180       -4.58580       -2.04360
C          1.73500       -2.91340       -1.43820
H          0.87530       -3.19540       -2.04110
C          1.69200       -1.76750       -0.64870
S          0.25830       -0.71880       -0.65610
N         -0.98620       -1.85090       -0.69710
C         -2.22670       -1.32430       -1.26810
H         -2.00210       -0.85450       -2.22650
H         -2.72160       -0.59320       -0.61240
H         -2.89830       -2.17030       -1.43800
C         -1.17650       -2.55020        0.57130
H         -0.27690       -3.12160        0.81750
H         -1.99740       -3.26150        0.44130
H         -1.41010       -1.86500        1.39570
C          2.77010       -1.39080        0.14500
H          2.69000       -0.49340        0.75240
C          3.91820       -2.17520        0.14450
H          4.76630       -1.89080        0.76090
C          3.97850       -3.32250       -0.64360
H          4.87750       -3.93410       -0.64280
O          0.21050        0.02710       -1.90710
O          0.22970       -0.00520        0.61510
