17
Properties=species:S:1:pos:R:3:forces:R:3 energy=-12850.050515887202 stress="0.0 0.0 0.0 0.0 0.0 0.0 0.0 0.0 0.0" pbc="F F F"
C         15.73690      -21.95560       -0.02190
H         14.78740      -21.42870       -0.03940
C         15.79190      -23.34800       -0.02020
H         14.87890      -23.93790       -0.03260
C         17.02810      -23.97450        0.00830
H         17.13570      -25.05430        0.03240
C         18.16640      -23.16910        0.01080
N         18.13410      -21.84130        0.02060
C         16.93150      -21.25420        0.00130
H         16.93770      -20.16570        0.00350
N         19.45500      -23.76880        0.03730
H         20.12740      -23.16340       -0.42530
C         19.93640      -24.25390        1.26740
N         21.31080      -24.40980        1.26710
H         21.64520      -24.92290        2.07020
H         21.75360      -24.66320        0.39540
O         19.23390      -24.51130        2.22140
