18
Properties=species:S:1:pos:R:3:forces:R:3 energy=-21768.368555404486 stress="0.0 0.0 0.0 0.0 0.0 0.0 0.0 0.0 0.0" pbc="F F F"
C         30.17960       -8.34920        0.04590
H         30.72560       -7.41050        0.08800
C         28.79120       -8.36000        0.02190
H         28.23800       -7.42540        0.04500
C         28.12520       -9.57920       -0.03200
H         27.04070       -9.63320       -0.05240
C         28.88810      -10.74040       -0.05940
H         28.40690      -11.71630       -0.10170
N         30.21880      -10.75070       -0.03710
C         30.85540       -9.57430        0.01480
C         33.06370      -10.80830        0.00950
H         32.58990      -11.78220       -0.03260
C         34.46700      -10.56580        0.04180
H         35.21910      -11.34660        0.02750
C         34.76390       -9.23690        0.09320
H         35.74060       -8.77430        0.12600
S         33.34690       -8.26400        0.10300
C         32.32690       -9.65990        0.03690
