22
Properties=species:S:1:pos:R:3:forces:R:3 energy=-13046.16035029089 stress="0.0 0.0 0.0 0.0 0.0 0.0 0.0 0.0 0.0" pbc="F F F"
C          2.11070       -3.43220       -1.11660
H          1.64610       -4.40930       -1.00560
C          1.37030       -2.28190       -0.87050
H          0.32300       -2.34180       -0.58500
C          1.96550       -1.02530       -0.98810
C          1.11630        0.19680       -0.74260
C          3.29190       -0.92730       -1.41090
H          3.74720        0.05340       -1.52730
C          4.02790       -2.07960       -1.67030
H          5.06380       -1.99770       -1.98470
C          3.44140       -3.33270       -1.51530
H          4.02050       -4.23140       -1.71210
N          1.55250        1.08090        0.21010
C          0.79570        2.30220        0.40240
H          0.05120        2.37440       -0.39020
H          1.46130        3.17250        0.36670
H          0.28430        2.29980        1.37490
C          2.60100        0.83070        1.17820
H          3.02380       -0.16500        1.05180
H          2.19790        0.90300        2.19670
H          3.40250        1.57420        1.08070
O          0.06440        0.35890       -1.34560
