19
Properties=species:S:1:pos:R:3:forces:R:3 energy=-12882.619098532801 stress="0.0 0.0 0.0 0.0 0.0 0.0 0.0 0.0 0.0" pbc="F F F"
C         26.03170      -11.03390       -0.45600
N         27.31290      -10.59800       -0.12890
H         27.31040       -9.65400        0.23660
N         28.68640      -12.58290       -0.32890
C         30.05050      -12.76470       -0.24830
H         30.49750      -13.74440       -0.35200
C         30.68570      -11.58040       -0.03500
H         31.72690      -11.31890        0.08050
N         29.68660      -10.62480        0.02360
C         28.51510      -11.29580       -0.15650
O         25.10810      -10.25840       -0.30880
C         25.86360      -12.43530       -0.97780
H         24.81370      -12.57240       -1.23410
H         26.50190      -12.60380       -1.84780
H         26.17940      -13.16260       -0.22670
C         29.86340       -9.19970        0.20080
H         30.93500       -8.99140        0.20020
H         29.44910       -8.85290        1.15540
H         29.40710       -8.63820       -0.62290
