22
Properties=species:S:1:pos:R:3:forces:R:3 energy=-15303.414882101368 stress="0.0 0.0 0.0 0.0 0.0 0.0 0.0 0.0 0.0" pbc="F F F"
C         12.85700      -33.17590        1.19000
H         13.42010      -33.03360        2.11030
C         11.46720      -33.14960        1.21320
H         10.94610      -32.98860        2.15310
C         10.74670      -33.31520        0.03340
H          9.66000      -33.28710        0.04980
C         11.42370      -33.51680       -1.16580
H         10.86830      -33.64750       -2.09030
C         12.81330      -33.56010       -1.18530
H         13.34260      -33.73120       -2.11920
C         13.54520      -33.39390       -0.00670
C         17.13420      -32.23630        0.46400
H         17.65730      -31.36500        0.84660
C         15.74440      -32.26610        0.46700
H         15.18710      -31.41480        0.85100
C         15.03400      -33.36290       -0.02950
C         15.78750      -34.43890       -0.49890
C         17.17280      -34.44300       -0.50140
H         17.69540      -35.31290       -0.88560
C         17.84900      -33.32840       -0.01880
H         18.93520      -33.31570       -0.01950
F         15.14920      -35.52500       -0.97520
