12
Properties=species:S:1:pos:R:3:forces:R:3 energy=-6760.766868561566 stress="0.0 0.0 0.0 0.0 0.0 0.0 0.0 0.0 0.0" pbc="F F F"
C         -0.77260       -3.28570        2.27280
H         -0.74830       -2.38440        2.88850
H         -0.78460       -4.14710        2.94670
H         -1.70870       -3.28700        1.69480
N          0.42270       -3.31420        1.45150
H          0.74790       -2.42390        1.09630
C          0.72830       -4.33170        0.57800
C          0.21660       -5.70850        0.95020
H          0.54450       -5.99390        1.95580
H          0.61030       -6.42370        0.22780
H         -0.87810       -5.74690        0.93200
O          1.42890       -4.13300       -0.39820
