15
Properties=species:S:1:pos:R:3:forces:R:3 energy=-7830.497056907991 stress="0.0 0.0 0.0 0.0 0.0 0.0 0.0 0.0 0.0" pbc="F F F"
C          2.58000       -1.23610       -0.63430
H          3.65650       -1.07430       -0.51550
H          2.40810       -1.69420       -1.61320
H          2.09100       -0.25480       -0.62090
C          2.04280       -2.12960        0.47570
H          2.53980       -3.10130        0.47670
H          2.22230       -1.66930        1.45740
N          0.62970       -2.40800        0.30360
H         -0.00670       -1.62950        0.22870
C          0.11780       -3.67280        0.35340
C         -1.39040       -3.74760        0.20730
H         -1.90060       -2.93730        0.73900
H         -1.66630       -3.68600       -0.85140
H         -1.73040       -4.70840        0.59490
O          0.81980       -4.66270        0.48120
