19
Properties=species:S:1:pos:R:3:forces:R:3 energy=-21331.88838522525 stress="0.0 0.0 0.0 0.0 0.0 0.0 0.0 0.0 0.0" pbc="F F F"
C         21.76790      -10.94350       -0.00220
H         22.30370      -11.88950        0.00220
C         20.37790      -10.92680       -0.00230
H         19.82780      -11.86410        0.00010
C         19.69350       -9.71460       -0.00390
H         18.60630       -9.70320       -0.00340
C         20.40310       -8.51810       -0.00330
H         19.87270       -7.56940       -0.00170
C         21.79450       -8.53230       -0.00510
H         22.34990       -7.59800       -0.00190
C         22.48750       -9.74500       -0.01080
C         24.81360       -9.55510       -1.05850
H         24.44180       -9.34850       -2.05530
C         26.19430       -9.65690       -0.70800
H         27.01120       -9.53170       -1.41060
C         26.37140       -9.93120        0.61490
H         27.30110      -10.06170        1.15450
S         24.87050      -10.07190        1.44730
C         23.97250       -9.75000        0.00020
