15
Properties=species:S:1:pos:R:3:forces:R:3 energy=-5346.4881290784 stress="0.0 0.0 0.0 0.0 0.0 0.0 0.0 0.0 0.0" pbc="F F F"
C          4.69430       -1.32970       -2.14320
H          5.74900       -1.06370       -2.01640
H          4.35410       -0.90220       -3.09330
C          3.84860       -0.80860       -0.98060
H          3.98860        0.27980       -0.90990
H          4.19580       -1.23310       -0.02920
C          2.38540       -1.10530       -1.15760
H          1.95550       -0.81800       -2.12100
C          1.60650       -1.66750       -0.23800
H          2.05990       -1.96250        0.71120
C          0.14160       -1.94740       -0.39710
H         -0.44470       -1.42590        0.36880
H         -0.06930       -3.01750       -0.28470
H          4.63150       -2.42020       -2.22400
H         -0.22300       -1.62960       -1.37970
