11
Properties=species:S:1:pos:R:3:forces:R:3 energy=-7300.9453610306955 stress="0.0 0.0 0.0 0.0 0.0 0.0 0.0 0.0 0.0" pbc="F F F"
C         -0.70190       -3.35770        2.20810
H         -0.75340       -2.39610        2.72040
H         -0.66890       -4.16040        2.95340
O          0.48310       -3.31620        1.42870
C          0.74050       -4.33420        0.56910
H         -1.59440       -3.48090        1.58120
C          0.20730       -5.69790        0.95130
H          0.54130       -5.97640        1.95730
H          0.58450       -6.42770        0.23470
O          1.42990       -4.13100       -0.39370
H         -0.88790       -5.71980        0.93670
