17
Properties=species:S:1:pos:R:3:forces:R:3 energy=-8893.076975559568 stress="0.0 0.0 0.0 0.0 0.0 0.0 0.0 0.0 0.0" pbc="F F F"
C          1.52980       -1.89100       -2.28090
H          1.71390       -2.51740       -3.15080
C          2.42980       -1.88850       -1.22010
H          3.31920       -2.51170       -1.25160
C          2.17520       -1.07650       -0.11860
H          2.86780       -1.06130        0.71960
C          1.03830       -0.27980       -0.07500
H          0.84440        0.34490        0.79590
C          0.12780       -0.28300       -1.13940
C          0.39170       -1.09340       -2.24850
H         -0.31010       -1.10930       -3.07870
N         -1.04140        0.49650       -1.08110
H         -1.08650        1.00300       -0.20640
C         -1.36080        1.36050       -2.20620
H         -1.56970        0.76010       -3.09750
H         -0.56790        2.08200       -2.46160
H         -2.27560        1.91190       -1.96870
