11
Properties=species:S:1:pos:R:3:forces:R:3 energy=-5940.609248059105 stress="0.0 0.0 0.0 0.0 0.0 0.0 0.0 0.0 0.0" pbc="F F F"
F         13.26910      -26.48220        0.00080
C         14.40260      -25.67850       -0.00150
H         14.36780      -25.03440       -0.88940
H         14.35740      -25.04270        0.89120
C         15.64440      -26.55010        0.00210
H         16.48330      -25.95020        0.37860
H         15.48780      -27.36390        0.71930
C         15.98510      -27.09260       -1.38320
H         16.18820      -26.27350       -2.08270
H         15.15200      -27.67720       -1.78820
H         16.86920      -27.73700       -1.35380
