11
Properties=species:S:1:pos:R:3:forces:R:3 energy=-7300.967012279362 stress="0.0 0.0 0.0 0.0 0.0 0.0 0.0 0.0 0.0" pbc="F F F"
C         -0.60640       -3.41470        2.32820
H         -0.66680       -2.44660        2.82700
H         -0.42180       -4.19310        3.07690
O          0.46770       -3.30370        1.40800
C          0.73740       -4.33270        0.56820
H         -1.55710       -3.61610        1.81910
C          0.20400       -5.69680        0.94930
H          0.56510       -5.99500        1.94000
H          0.55610       -6.41820        0.21180
O          1.42150       -4.13160       -0.39920
H         -0.89100       -5.71260        0.96610
