14
Properties=species:S:1:pos:R:3:forces:R:3 energy=-12410.74775128432 stress="0.0 0.0 0.0 0.0 0.0 0.0 0.0 0.0 0.0" pbc="F F F"
C         -0.14570        0.00210        0.18840
H          0.04400       -0.57380        1.10020
H          0.17350       -0.60850       -0.66260
C          0.60470        1.33320        0.21730
H          0.36860        1.89610       -0.69280
H          0.23950        1.93080        1.06010
C          2.11200        1.13210        0.33240
H          2.49670        0.55430       -0.51580
H          2.36650        0.58890        1.24960
H          2.64360        2.08870        0.35280
C         -1.63960        0.16440        0.07550
F         -2.14610        0.86160        1.11270
F         -1.98730        0.81900       -1.05090
F         -2.26120       -1.02900        0.05340
