21
Properties=species:S:1:pos:R:3:forces:R:3 energy=-13945.46218899804 stress="0.0 0.0 0.0 0.0 0.0 0.0 0.0 0.0 0.0" pbc="F F F"
C         29.19200      -17.04200       -1.44900
H         29.70700      -17.64090       -2.19530
C         27.81280      -17.09190       -1.29940
H         27.21180      -17.74090       -1.93110
C         27.22020      -16.29220       -0.33060
H         26.14530      -16.29120       -0.17490
C         28.04040      -15.48000        0.44390
H         27.61450      -14.83630        1.21050
N         29.36710      -15.42430        0.32050
C         29.92840      -16.20370       -0.61280
N         32.05650      -15.44010       -1.68520
C         33.38490      -15.63060       -1.39580
H         34.16270      -15.18270       -1.99970
C         33.52520      -16.42000       -0.28850
H         34.38790      -16.78970        0.24800
N         32.24880      -16.72500        0.11870
C         31.40680      -16.11750       -0.76710
C         31.86630      -17.52850        1.26640
H         32.76830      -17.80000        1.81960
H         31.20040      -16.95610        1.91690
H         31.35680      -18.43930        0.94240
