19
Properties=species:S:1:pos:R:3:forces:R:3 energy=-12543.204155272564 stress="0.0 0.0 0.0 0.0 0.0 0.0 0.0 0.0 0.0" pbc="F F F"
C          4.38600      -10.41530        0.01560
H          4.91710      -11.36370        0.01630
C          2.99620      -10.38940        0.01750
H          2.43770      -11.32260        0.02910
C          2.32090       -9.17180       -0.00100
H          1.23370       -9.15250       -0.00160
C          3.03960       -7.98090       -0.02380
H          2.51620       -7.02840       -0.04430
C          4.43070       -8.00690       -0.01990
H          4.99410       -7.07710       -0.04110
C          5.11590       -9.22300        0.01480
C          7.53540       -8.88580        0.91750
H          7.35270       -8.44470        1.88800
C          8.80630       -9.20960        0.34110
H          9.78280       -9.05720        0.78040
C          8.53510       -9.75010       -0.87170
H          9.14620      -10.14140       -1.67230
O          7.19680       -9.79300       -1.08830
C          6.59290       -9.24310        0.00370
