21
Properties=species:S:1:pos:R:3:forces:R:3 energy=-13945.431522244751 stress="0.0 0.0 0.0 0.0 0.0 0.0 0.0 0.0 0.0" pbc="F F F"
C         29.19110      -17.06980       -1.48110
H         29.70590      -17.66230       -2.23220
C         27.81040      -17.10140       -1.34710
H         27.20470      -17.72610       -1.99770
C         27.22370      -16.31990       -0.36030
H         26.14820      -16.30950       -0.20940
C         28.05200      -15.53990        0.44080
H         27.63030      -14.91370        1.22490
N         29.37740      -15.49270        0.31920
C         29.93460      -16.24710       -0.63090
N         32.13600      -15.19020       -1.16810
C         33.42910      -15.65000       -1.18310
H         34.24780      -15.01540       -1.49490
C         33.48150      -16.94930       -0.76160
H         34.29490      -17.64930       -0.63260
N         32.18480      -17.30300       -0.47700
C         31.41850      -16.20360       -0.74290
C         31.73750      -18.59060        0.02100
H         32.51390      -19.01090        0.66490
H         31.53080      -19.29370       -0.79380
H         30.83080      -18.45300        0.61400
