20
Properties=species:S:1:pos:R:3:forces:R:3 energy=-13476.397356939768 stress="0.0 0.0 0.0 0.0 0.0 0.0 0.0 0.0 0.0" pbc="F F F"
C         21.68270      -26.60380        0.00890
H         22.23780      -27.53870        0.00110
C         20.29200      -26.60760        0.02190
H         19.75360      -27.55170        0.03790
C         19.59170      -25.40410        0.00630
H         18.50490      -25.40720        0.01030
C         20.28480      -24.19650       -0.00960
H         19.74090      -23.25540       -0.01360
C         21.67550      -24.19150       -0.00610
H         22.22400      -23.25310        0.01060
C         22.38240      -25.39570       -0.01980
C         25.83110      -26.16550       -0.83650
H         26.33440      -26.81710       -1.54810
N         24.50010      -26.19780       -0.85260
C         23.87310      -25.39620        0.01690
N         24.46450      -24.55960        0.87770
C         25.79590      -24.57090        0.89650
H         26.27050      -23.90520        1.61500
C         26.54930      -25.36420        0.04150
H         27.63360      -25.35520        0.05540
