20
Properties=species:S:1:pos:R:3:forces:R:3 energy=-13476.525480119912 stress="0.0 0.0 0.0 0.0 0.0 0.0 0.0 0.0 0.0" pbc="F F F"
C         21.68590      -24.19580        0.02920
H         22.24260      -23.26440        0.05150
C         20.29690      -24.19580        0.01320
H         19.75710      -23.25210        0.01850
C         19.59860      -25.40010       -0.00790
H         18.51200      -25.39850       -0.01940
C         20.29360      -26.60650       -0.01520
H         19.75120      -27.54850       -0.03380
C         21.68260      -26.61060       -0.00190
H         22.23690      -27.54360       -0.01550
C         22.38650      -25.40430        0.02520
C         25.81410      -26.56520       -0.18240
H         26.30320      -27.52210       -0.35700
N         24.48510      -26.57820       -0.17980
C         23.87250      -25.40660        0.03100
N         24.48690      -24.23480        0.23510
C         25.81580      -24.25040        0.24080
H         26.30640      -23.29400        0.41450
C         26.55170      -25.40860        0.03070
H         27.63590      -25.40960        0.03190
