15
Properties=species:S:1:pos:R:3:forces:R:3 energy=-7830.3702099139055 stress="0.0 0.0 0.0 0.0 0.0 0.0 0.0 0.0 0.0" pbc="F F F"
C          2.72260       -3.05860        1.70440
H          3.69430       -2.63740        1.98310
H          2.87470       -4.03110        1.23570
H          2.13630       -3.21010        2.61550
C          2.00320       -2.10010        0.76400
H          2.56520       -2.01660       -0.17810
H          1.98170       -1.09750        1.20320
N          0.61540       -2.45170        0.47720
H         -0.00740       -1.68130        0.29540
C          0.06510       -3.69720        0.44200
C         -1.42300       -3.72030        0.13250
H         -1.84000       -2.74540       -0.13940
H         -1.95590       -4.10280        1.00820
H         -1.59320       -4.42370       -0.68640
O          0.68200       -4.73350        0.63480
