14
Properties=species:S:1:pos:R:3:forces:R:3 energy=-10306.531346087984 stress="0.0 0.0 0.0 0.0 0.0 0.0 0.0 0.0 0.0" pbc="F F F"
O          4.85340      -11.70800       -0.53880
C          5.46150      -10.13710        1.16260
H          5.92310       -9.18760        0.86380
H          4.38320       -9.99470        1.25600
H          5.89530      -10.41440        2.12950
C          5.73040      -11.21330        0.13130
N          7.53630      -12.94470        0.02610
C          8.90510      -12.89840        0.00140
H          9.49530      -13.80560       -0.00690
C          9.34820      -11.60310       -0.00930
H         10.33760      -11.16990       -0.03030
N          8.21140      -10.83630        0.01890
H          8.17050       -9.82950       -0.02470
C          7.14580      -11.69180        0.01890
