19
Properties=species:S:1:pos:R:3:forces:R:3 energy=-21331.91329356569 stress="0.0 0.0 0.0 0.0 0.0 0.0 0.0 0.0 0.0" pbc="F F F"
C         21.77100      -10.94320       -0.00220
H         22.30930      -11.88740       -0.01130
C         20.38110      -10.92730        0.00230
H         19.83120      -11.86460       -0.00050
C         19.69590       -9.71510        0.00770
H         18.60870       -9.70470        0.00990
C         20.40420       -8.51790        0.00690
H         19.87220       -7.57010        0.00750
C         21.79590       -8.53190        0.00640
H         22.35080       -7.59740        0.00240
C         22.48930       -9.74390        0.00900
C         24.81050       -9.35630        0.99460
H         24.43230       -8.95810        1.92890
C         26.19080       -9.53580        0.67720
H         27.00770       -9.28780        1.34630
C         26.36830      -10.05770       -0.56920
H         27.29770      -10.29640       -1.07070
S         24.86780      -10.34190       -1.36570
C         23.97110       -9.74040       -0.01160
