12
Properties=species:S:1:pos:R:3:forces:R:3 energy=-6760.4875271570845 stress="0.0 0.0 0.0 0.0 0.0 0.0 0.0 0.0 0.0" pbc="F F F"
C          0.35420       -3.07270        2.64410
H         -0.24410       -2.21270        2.95900
H         -0.04030       -3.95820        3.15260
H          1.39380       -2.91850        2.97170
N          0.19920       -3.24850        1.20220
H          0.55310       -2.43380        0.70920
C          0.83470       -4.35290        0.60700
C          0.24170       -5.70330        0.95160
H          0.58110       -6.03940        1.93920
H         -0.85030       -5.64600        0.98560
H          0.56400       -6.43030        0.20410
O          1.68720       -4.20330       -0.24300
