18
Properties=species:S:1:pos:R:3:forces:R:3 energy=-12413.519462701923 stress="0.0 0.0 0.0 0.0 0.0 0.0 0.0 0.0 0.0" pbc="F F F"
C          7.43330      -26.92030        0.02830
H          6.50950      -26.35190        0.03100
C          7.44170      -28.30800       -0.12090
H          6.51140      -28.85780       -0.23930
C          8.64690      -28.98160       -0.11900
H          8.69030      -30.06230       -0.23450
C          9.83320      -28.24230        0.03960
N          9.83640      -26.92120        0.18220
C          8.65630      -26.28910        0.17310
H          8.70720      -25.20920        0.29260
N         11.03860      -28.94540        0.02330
H         10.96350      -29.94120       -0.14040
C         12.35700      -28.59100        0.30380
C         12.68680      -27.15670        0.61170
H         12.14090      -26.81140        1.49280
H         13.76180      -27.09870        0.78230
H         12.39090      -26.50210       -0.21110
O         13.19720      -29.47020        0.28110
