14
Properties=species:S:1:pos:R:3:forces:R:3 energy=-7010.005173042353 stress="0.0 0.0 0.0 0.0 0.0 0.0 0.0 0.0 0.0" pbc="F F F"
C          0.03080       -0.02430        0.00820
H          0.03240       -0.70620        0.86690
H          0.04130       -0.65240       -0.89010
C         -1.24260        0.82070        0.01240
H         -1.24300        1.47790        0.89290
H         -1.23610        1.48190       -0.86490
C         -2.50850       -0.03060        0.00490
H         -2.54530       -0.68490        0.88390
H         -3.41050        0.58960        0.01060
H         -2.54670       -0.67000       -0.88480
C          1.31760        0.80160       -0.02450
H          1.10310        1.85640       -0.24150
H          1.86180        0.75650        0.92470
F          2.16060        0.34050       -1.02680
