11
Properties=species:S:1:pos:R:3:forces:R:3 energy=-5940.517567516633 stress="0.0 0.0 0.0 0.0 0.0 0.0 0.0 0.0 0.0" pbc="F F F"
F         13.25590      -26.46740       -0.00010
C         14.39920      -25.67840        0.00030
H         14.35520      -25.04820        0.89670
H         14.36510      -25.02310       -0.87900
C         15.64870      -26.55530       -0.00130
H         15.36970      -27.53110        0.41080
H         16.38660      -26.12080        0.68440
C         16.27940      -26.69900       -1.38430
H         15.57280      -27.14210       -2.09500
H         16.58000      -25.72180       -1.77900
H         17.16860      -27.33600       -1.35260
