19
Properties=species:S:1:pos:R:3:forces:R:3 energy=-12439.883518988972 stress="0.0 0.0 0.0 0.0 0.0 0.0 0.0 0.0 0.0" pbc="F F F"
C          5.62920      -17.47730       -0.01450
H          6.20420      -18.39930       -0.03990
C          4.24100      -17.49760        0.00360
H          3.71530      -18.44880        0.00350
C          3.52400      -16.30390        0.01870
H          2.43760      -16.32110        0.03210
C          4.20420      -15.08850        0.01120
H          3.65140      -14.15240        0.01830
C          5.59370      -15.06600       -0.00250
H          6.10880      -14.10740       -0.02690
C          6.31800      -16.26120       -0.00950
N          8.53880      -17.29570       -0.37360
C          9.83380      -16.87420       -0.21980
H         10.66890      -17.52070       -0.45580
C          9.87220      -15.59360        0.25400
H         10.68800      -14.93130        0.50230
N          8.55540      -15.21910        0.38090
H          8.22100      -14.36290        0.79330
C          7.78800      -16.27770       -0.01230
