19
Properties=species:S:1:pos:R:3:forces:R:3 energy=-12439.699133328779 stress="0.0 0.0 0.0 0.0 0.0 0.0 0.0 0.0 0.0" pbc="F F F"
C         21.32560      -34.80900        0.01810
H         21.87210      -33.86980        0.03320
C         19.93790      -34.82940        0.00940
H         19.37430      -33.90020        0.01020
C         19.28320      -36.05570       -0.00270
H         18.19960      -36.12120       -0.01280
C         20.05840      -37.21160        0.00100
H         19.58560      -38.19290       -0.00430
N         21.38900      -37.20970        0.01790
C         22.01760      -36.02290        0.01760
C         24.44640      -35.14520       -0.36440
H         24.27160      -34.12020       -0.66660
C         25.70380      -35.79450       -0.26430
H         26.67640      -35.36430       -0.46040
C         25.46570      -37.09210        0.12740
H         26.14790      -37.91010        0.31250
N         24.12050      -37.24620        0.27000
H         23.60690      -38.09260        0.46380
C         23.48260      -36.06800       -0.00990
