18
Properties=species:S:1:pos:R:3:forces:R:3 energy=-8457.037572003557 stress="0.0 0.0 0.0 0.0 0.0 0.0 0.0 0.0 0.0" pbc="F F F"
C          5.51000      -23.17210       -0.07100
C          6.81980      -22.40960       -0.05420
H          6.60730      -21.33980       -0.16200
C          7.81680      -22.84290       -1.13120
H          7.38590      -22.73210       -2.13150
H          8.11470      -23.88940       -1.01100
H          8.72490      -22.23300       -1.08220
H          7.28990      -22.52670        0.93290
C          5.48450      -24.56870       -0.05750
H          6.42080      -25.12430       -0.04730
C          4.27800      -25.26050       -0.04250
H          4.28100      -26.34810       -0.03420
C          3.07140      -24.56670       -0.03950
H          2.12850      -25.10800       -0.02980
C          3.08230      -23.17590       -0.04600
H          2.14600      -22.62200       -0.04150
C          4.29300      -22.48920       -0.05670
H          4.29610      -21.40020       -0.06310
