14
Properties=species:S:1:pos:R:3:forces:R:3 energy=-7010.0037337712665 stress="0.0 0.0 0.0 0.0 0.0 0.0 0.0 0.0 0.0" pbc="F F F"
C          0.03150       -0.02930        0.00490
H          0.02140       -0.67870       -0.87970
H          0.05260       -0.68840        0.87990
C         -1.24070        0.81810        0.00890
H         -1.23710        1.47920       -0.86830
H         -1.23140        1.47570        0.88900
C         -2.50890       -0.02910        0.00970
H         -2.54890       -0.67620       -0.87450
H         -3.40910        0.59400        0.00950
H         -2.54880       -0.67540        0.89440
C          1.32170        0.79130        0.02140
H          1.12390        1.85810       -0.14380
H          2.02280        0.45290       -0.74980
F          1.96310        0.66020        1.24680
