10
Properties=species:S:1:pos:R:3:forces:R:3 energy=-6263.566104401174 stress="0.0 0.0 0.0 0.0 0.0 0.0 0.0 0.0 0.0" pbc="F F F"
O          0.09120       -2.10590        1.22100
H         -0.27500       -1.53390        1.90510
C          0.34670       -3.38330        1.78710
H          1.23630       -3.35660        2.43610
H         -0.51060       -3.74580        2.37390
C          0.57140       -4.32390        0.62450
H          1.35630       -3.91430       -0.02940
H          0.90670       -5.29960        0.99030
O         -0.63370       -4.54710       -0.07430
H         -0.94930       -3.66920       -0.33100
