14
Properties=species:S:1:pos:R:3:forces:R:3 energy=-10409.973522827986 stress="0.0 0.0 0.0 0.0 0.0 0.0 0.0 0.0 0.0" pbc="F F F"
O          3.94440       -4.24410       -0.79970
C          4.41820       -3.61810        1.45910
H          4.46440       -4.38480        2.24160
H          3.42170       -3.17420        1.42650
H          5.16180       -2.85350        1.71320
C          4.73850       -4.22330        0.11430
C          6.52760       -6.13620        0.03740
H          5.90410       -7.01920        0.08570
C          7.95960       -6.07940        0.00700
H          8.64900       -6.91220        0.02180
C          8.27790       -4.76300       -0.04310
H          9.21250       -4.22200       -0.08130
O          7.15910       -3.99660       -0.03990
C          6.09720       -4.85060       -0.01700
