13
Properties=species:S:1:pos:R:3:forces:R:3 energy=-10846.717072309279 stress="0.0 0.0 0.0 0.0 0.0 0.0 0.0 0.0 0.0" pbc="F F F"
O          4.11370      -17.87680       -0.65190
C          4.77030      -16.31840        1.05350
H          5.08980      -16.64910        2.04840
H          3.71420      -16.04370        1.06720
H          5.38260      -15.44750        0.79410
C          4.98710      -17.41830        0.04540
N          6.73890      -19.22410        0.01150
C          8.12320      -19.17430        0.01950
H          8.72260      -20.07380        0.03410
C          8.52250      -17.88290        0.00610
H          9.47320      -17.37280        0.00170
O          7.40610      -17.10170       -0.00270
C          6.37820      -17.98470       -0.01940
