21
Properties=species:S:1:pos:R:3:forces:R:3 energy=-15739.632734963005 stress="0.0 0.0 0.0 0.0 0.0 0.0 0.0 0.0 0.0" pbc="F F F"
C         21.79570      -33.54290        1.12620
H         22.32110      -33.76960        2.04940
C         20.40870      -33.53210        1.06270
H         19.81160      -33.73960        1.94600
C         19.80510      -33.25700       -0.15790
H         18.72450      -33.23860       -0.26630
C         20.62280      -33.00630       -1.25460
H         20.18820      -32.79260       -2.22840
N         21.95630      -33.00550       -1.20800
C         22.52890      -33.25930       -0.02720
C         26.17860      -32.19230       -0.00550
H         26.75800      -31.27360       -0.01350
C         24.78760      -32.13500       -0.01330
H         24.28070      -31.17370       -0.04310
C         24.02120      -33.29960        0.01440
C         24.69540      -34.51810        0.00130
C         26.07880      -34.60270        0.00100
H         26.54610      -35.58180        0.00330
C         26.82130      -33.42680        0.00220
H         27.90650      -33.47790        0.00500
F         23.98170      -35.65530        0.01650
