17
Properties=species:S:1:pos:R:3:forces:R:3 energy=-11376.21741526619 stress="0.0 0.0 0.0 0.0 0.0 0.0 0.0 0.0 0.0" pbc="F F F"
O         19.62910      -10.21050       -0.81500
C         18.84880      -11.87020        0.72430
H         18.96450      -12.95700        0.64140
H         17.85080      -11.56680        0.40360
H         18.99850      -11.60450        1.77650
C         19.88250      -11.17880       -0.12310
N         21.66950      -12.92330       -0.03410
C         23.03530      -12.88380       -0.02080
H         23.63100      -13.78670       -0.04850
C         23.47200      -11.58610        0.01610
H         24.45950      -11.14550        0.03140
N         22.34730      -10.80630        0.03270
C         21.28640      -11.66260        0.02440
C         22.31120       -9.35420       -0.00230
H         23.30760       -8.98360        0.24840
H         21.59750       -8.99130        0.73830
H         22.01090       -8.98930       -0.98640
