20
Properties=species:S:1:pos:R:3:forces:R:3 energy=-12003.131999057288 stress="0.0 0.0 0.0 0.0 0.0 0.0 0.0 0.0 0.0" pbc="F F F"
C         13.25780      -34.78910        0.00680
H         13.79540      -33.84340        0.01840
C         11.86780      -34.79480        0.02020
H         11.32590      -33.85240        0.03270
C         11.17150      -36.00100        0.01070
H         10.08450      -36.00350        0.01650
C         11.87380      -37.20230       -0.00630
H         11.33710      -38.14710       -0.01500
C         13.26400      -37.19630       -0.00960
H         13.81310      -38.13480       -0.02290
C         13.97320      -35.99180       -0.00040
C         16.33490      -36.71530        0.76300
H         16.05880      -37.43330        1.52390
C         17.64700      -36.31700        0.39080
H         18.57750      -36.67700        0.80830
C         17.51940      -35.38090       -0.60500
H         18.26610      -34.83320       -1.16300
N         16.18290      -35.19130       -0.83550
H         15.79230      -34.60470       -1.55570
C         15.44430      -36.01480       -0.01940
