14
Properties=species:S:1:pos:R:3:forces:R:3 energy=-7010.172120252253 stress="0.0 0.0 0.0 0.0 0.0 0.0 0.0 0.0 0.0" pbc="F F F"
C          0.03300       -0.03870       -0.02970
H          0.04090       -0.69620        0.84970
H          0.05260       -0.68810       -0.91540
C         -1.23460        0.81440       -0.02210
H         -1.19200        1.49220        0.83820
H         -1.24790        1.45160       -0.91730
C         -2.50770       -0.02490        0.03090
H         -2.53070       -0.64510        0.93460
H         -3.40340        0.60460        0.03440
H         -2.57380       -0.69640       -0.83340
C          1.29860        0.79280       -0.02050
H          2.19530        0.16200       -0.02010
H          1.33740        1.46080       -0.89110
F          1.32720        1.58440        1.12160
