15
Properties=species:S:1:pos:R:3:forces:R:3 energy=-5346.440855961509 stress="0.0 0.0 0.0 0.0 0.0 0.0 0.0 0.0 0.0" pbc="F F F"
C          4.59130       -0.61930       -2.31030
H          5.63990       -0.35280       -2.14420
H          4.13380        0.17710       -2.90780
C          3.84790       -0.79370       -0.98650
H          3.93960        0.14070       -0.41260
H          4.31970       -1.56980       -0.36810
C          2.38460       -1.11790       -1.16670
H          1.92810       -0.81470       -2.11350
C          1.61060       -1.67900       -0.24120
H          2.06050       -1.99540        0.70320
C          0.14070       -1.93720       -0.39070
H         -0.43240       -1.41470        0.38480
H         -0.08420       -3.00520       -0.28350
H          4.56840       -1.54010       -2.90370
H         -0.22860       -1.60690       -1.36760
