11
Properties=species:S:1:pos:R:3:forces:R:3 energy=-5940.590274656031 stress="0.0 0.0 0.0 0.0 0.0 0.0 0.0 0.0 0.0" pbc="F F F"
F         13.26760      -26.49140        0.00480
C         14.39460      -25.68360        0.00590
H         14.36040      -25.07010        0.91590
H         14.34610      -25.01360       -0.86100
C         15.64960      -26.53940       -0.00660
H         15.81080      -26.94880       -1.00980
H         15.46370      -27.39100        0.65880
C         16.87530      -25.76910        0.47740
H         17.08540      -24.90360       -0.16230
H         16.72840      -25.39990        1.49900
H         17.76660      -26.40420        0.47870
