18
Properties=species:S:1:pos:R:3:forces:R:3 energy=-8899.695302563601 stress="0.0 0.0 0.0 0.0 0.0 0.0 0.0 0.0 0.0" pbc="F F F"
C          2.46290       -3.12380        2.05570
H          3.51710       -2.92940        2.28080
H          1.87030       -2.83550        2.93150
H          2.33090       -4.19030        1.87680
C          2.06170       -2.31580        0.82200
H          2.67540       -2.64660       -0.02610
H          2.26970       -1.25210        0.97720
N          0.65270       -2.41730        0.42690
C         -0.17020       -1.22530        0.50740
H         -0.98430       -1.27500       -0.21910
H         -0.60410       -1.06700        1.50610
H          0.43870       -0.35310        0.25600
C          0.09820       -3.66500        0.30630
C         -1.41540       -3.73820        0.22560
H         -1.90210       -3.18500        1.03410
H         -1.77130       -3.33040       -0.72780
H         -1.70050       -4.78870        0.27910
O          0.78330       -4.67480        0.22030
