17
Properties=species:S:1:pos:R:3:forces:R:3 energy=-11376.437002053772 stress="0.0 0.0 0.0 0.0 0.0 0.0 0.0 0.0 0.0" pbc="F F F"
O         19.59990      -10.00160       -0.00040
C         18.82310      -12.26800       -0.00100
H         18.94770      -12.91340       -0.87630
H         17.83100      -11.81450       -0.00200
H         18.94620      -12.91250        0.87530
C         19.87360      -11.18890       -0.00060
N         21.66330      -12.91140       -0.00050
C         23.02520      -12.87840       -0.00020
H         23.62010      -13.78340       -0.00020
C         23.46810      -11.58230        0.00010
H         24.45860      -11.14850        0.00040
N         22.35160      -10.79570        0.00000
C         21.28280      -11.64500       -0.00040
C         22.34590       -9.34210        0.00030
H         23.38520       -9.00510        0.00070
H         21.83530       -8.96380        0.88590
H         21.83590       -8.96350       -0.88560
