22
Properties=species:S:1:pos:R:3:forces:R:3 energy=-15303.334713576834 stress="0.0 0.0 0.0 0.0 0.0 0.0 0.0 0.0 0.0" pbc="F F F"
C         12.81410      -33.18770       -1.18370
H         13.34520      -33.01030       -2.11540
C         11.42440      -33.24540       -1.16190
H         10.86290      -33.09860       -2.08050
C         10.75620      -33.49820        0.03280
H          9.66980      -33.54600        0.05020
C         11.48160      -33.69550        1.20400
H         10.96540      -33.89880        2.13830
C         12.87170      -33.63040        1.18020
H         13.44360      -33.78080        2.09310
C         13.54830      -33.36000       -0.01010
C         17.14960      -32.24280        0.47710
H         17.68960      -31.38550        0.86820
C         15.75810      -32.24250        0.47130
H         15.21020      -31.38990        0.86400
C         15.03620      -33.32320       -0.03870
C         15.76530      -34.41470       -0.50410
C         17.15000      -34.44550       -0.50360
H         17.65630      -35.32430       -0.88890
C         17.84420      -33.34570       -0.01100
H         18.93080      -33.35400       -0.00660
F         15.09680      -35.47680       -0.98600
