12
Properties=species:S:1:pos:R:3:forces:R:3 energy=-6760.728089668327 stress="0.0 0.0 0.0 0.0 0.0 0.0 0.0 0.0 0.0" pbc="F F F"
C         -0.83630       -3.21490        2.14810
H         -0.81580       -2.33750        2.79810
H         -1.69510       -3.12580        1.46610
H         -0.99190       -4.09260        2.78180
N          0.44630       -3.31890        1.47220
H          0.81380       -2.44380        1.11770
C          0.73130       -4.33210        0.57770
C          0.21930       -5.70810        0.95110
H          0.49610       -5.96680        1.97870
H         -0.87300       -5.75640        0.87740
H          0.65380       -6.43370        0.26290
O          1.43390       -4.13250       -0.39550
