20
Properties=species:S:1:pos:R:3:forces:R:3 energy=-13476.508714050162 stress="0.0 0.0 0.0 0.0 0.0 0.0 0.0 0.0 0.0" pbc="F F F"
C         21.68360      -26.60790       -0.01700
H         22.23980      -27.53990       -0.03760
C         20.29450      -26.60620        0.00200
H         19.75340      -27.54910        0.00560
C         19.59780      -25.40070        0.01290
H         18.51120      -25.40080        0.02550
C         20.29420      -24.19500        0.00990
H         19.75310      -23.25220        0.02300
C         21.68340      -24.19310       -0.00310
H         22.23990      -23.26110        0.01150
C         22.38530      -25.40030       -0.02740
C         25.81180      -24.29590        0.39080
H         26.30070      -23.38010        0.71890
N         24.48260      -24.27680        0.37320
C         23.87130      -25.39940       -0.02400
N         24.48470      -26.52980       -0.39500
C         25.81390      -26.51540       -0.39230
H         26.30460      -27.43420       -0.70880
C         26.54950      -25.40640        0.00360
H         27.63380      -25.40830        0.01200
