18
Properties=species:S:1:pos:R:3:forces:R:3 energy=-12876.11825231596 stress="0.0 0.0 0.0 0.0 0.0 0.0 0.0 0.0 0.0" pbc="F F F"
C         13.91650      -15.04480       -0.00890
H         14.47520      -14.11320       -0.00580
C         12.52870      -15.06030       -0.05280
H         11.96790      -14.13060       -0.09970
C         11.87190      -16.28450       -0.02710
H         10.78800      -16.34720       -0.05460
C         12.64130      -17.44220        0.04060
H         12.16700      -18.42180        0.06790
N         13.97350      -17.44570        0.07060
C         14.59670      -16.26210        0.03690
N         16.82560      -15.72370        1.05250
C         18.10760      -16.12440        0.76800
H         18.94350      -15.79650        1.37120
C         18.12820      -16.95240       -0.32150
H         18.92830      -17.46300       -0.83760
N         16.81700      -17.05700       -0.71390
H         16.43280      -17.66790       -1.41950
C         16.07720      -16.28720        0.13170
