19
Properties=species:S:1:pos:R:3:forces:R:3 energy=-11977.037866978566 stress="0.0 0.0 0.0 0.0 0.0 0.0 0.0 0.0 0.0" pbc="F F F"
C         -0.14740        0.06550       -1.56700
N         -1.48270        0.07690       -1.11460
H         -1.59630        0.28840       -0.13480
C          0.21120       -0.33930       -2.85470
H         -0.55780       -0.64830       -3.55060
C          1.55330       -0.33090       -3.22000
H          1.82450       -0.64640       -4.22510
C          2.54250        0.07390       -2.32950
H          3.58580        0.07500       -2.63240
C          2.17860        0.47730       -1.04800
H          2.93740        0.79710       -0.33810
C          0.84340        0.47200       -0.66700
H          0.56640        0.78950        0.33650
C         -2.63600       -0.09160       -1.84440
C         -3.89740        0.03750       -1.00860
H         -3.97740        1.03970       -0.57360
H         -3.90160       -0.68780       -0.18810
H         -4.75760       -0.14240       -1.65240
O         -2.65610       -0.32090       -3.03900
