23
Properties=species:S:1:pos:R:3:forces:R:3 energy=-24888.711899166385 stress="0.0 0.0 0.0 0.0 0.0 0.0 0.0 0.0 0.0" pbc="F F F"
C          3.93340       -2.18220        0.31200
H          4.62790       -2.08920        1.14240
C          2.72160       -1.50110        0.34930
H          2.44870       -0.86910        1.18970
C          1.82520       -1.64970       -0.70420
S          0.30050       -0.73290       -0.66660
N         -0.90140       -1.87870       -0.68830
C         -1.05250       -2.68470        0.51390
H         -0.99580       -2.03270        1.38680
H         -0.29270       -3.47530        0.59580
H         -2.04380       -3.14620        0.49320
C         -1.23610       -2.52350       -1.94640
H         -1.17660       -1.79040       -2.75240
H         -2.26740       -2.88240       -1.88000
H         -0.58650       -3.38010       -2.17530
C          2.15970       -2.39780       -1.82980
H          1.49930       -2.42430       -2.69310
C          3.37240       -3.07670       -1.85640
H          3.63020       -3.67710       -2.72380
C          4.25720       -2.97690       -0.78510
H          5.20480       -3.50910       -0.81020
O          0.19430        0.00500       -1.91600
O          0.22680       -0.06520        0.62170
