21
Properties=species:S:1:pos:R:3:forces:R:3 energy=-13040.000894198176 stress="0.0 0.0 0.0 0.0 0.0 0.0 0.0 0.0 0.0" pbc="F F F"
C         21.82160      -22.01180       -0.03920
H         22.32960      -22.97130       -0.07100
C         20.43160      -22.00100       -0.04150
H         19.88920      -22.94250       -0.07480
C         19.73920      -20.79490       -0.00150
H         18.65280      -20.78690       -0.00340
C         20.44850      -19.59870        0.04080
H         19.91790      -18.65000        0.07230
C         21.83710      -19.60860        0.04320
H         22.39410      -18.67820        0.07610
C         22.54440      -20.81600        0.00320
C         26.19560      -21.85790       -0.02540
H         26.80950      -22.75470       -0.05490
C         24.81190      -21.96130       -0.03170
H         24.35110      -22.94300       -0.06620
C         24.03980      -20.79460        0.00680
N         24.60650      -19.58100        0.04940
C         25.93430      -19.49640        0.05490
H         26.34400      -18.48810        0.09020
C         26.78000      -20.59860        0.01880
H         27.85750      -20.46930        0.02540
