21
Properties=species:S:1:pos:R:3:forces:R:3 energy=-15739.683232536763 stress="0.0 0.0 0.0 0.0 0.0 0.0 0.0 0.0 0.0" pbc="F F F"
C         21.78360      -33.73240        1.05350
H         22.29830      -34.12120        1.92780
C         20.39760      -33.69540        0.98430
H         19.79290      -34.04320        1.81690
C         19.80380      -33.21530       -0.17630
H         18.72410      -33.17020       -0.28590
C         20.63120      -32.79100       -1.21020
H         20.20620      -32.41230       -2.13700
N         21.96420      -32.80570       -1.15390
C         22.52810      -33.26480       -0.03160
C         26.17380      -32.19320        0.00320
H         26.74900      -31.27170        0.00330
C         24.78320      -32.14240       -0.01290
H         24.27190      -31.18330       -0.04150
C         24.02020      -33.30990        0.00750
C         24.70230      -34.52510       -0.01040
C         26.08610      -34.60350       -0.00590
H         26.55920      -35.57980       -0.00770
C         26.82290      -33.42450        0.00700
H         27.90830      -33.47010        0.01520
F         23.99650      -35.66870       -0.01130
