16
Properties=species:S:1:pos:R:3:forces:R:3 energy=-20705.146997395575 stress="0.0 0.0 0.0 0.0 0.0 0.0 0.0 0.0 0.0" pbc="F F F"
C         28.85930       -3.93310        0.96210
N         29.43120       -4.73470       -0.01500
H         28.89560       -4.76690       -0.87580
C         31.06660       -6.59160       -0.01540
H         30.32230       -7.37830       -0.04120
C         32.47440       -6.80560        0.02760
H         32.93610       -7.78780        0.03420
C         33.18020       -5.64280        0.05290
H         34.25380       -5.51150        0.08350
S         32.15300       -4.26130        0.01720
C         30.72780       -5.27090        0.01190
O         27.82670       -3.34090        0.72510
C         29.55590       -3.87720        2.30010
H         30.22290       -4.72870        2.46190
H         30.14250       -2.95410        2.36030
H         28.79400       -3.83420        3.08160
