18
Properties=species:S:1:pos:R:3:forces:R:3 energy=-21768.462200801707 stress="0.0 0.0 0.0 0.0 0.0 0.0 0.0 0.0 0.0" pbc="F F F"
C         21.82390      -21.14640       -0.01570
H         22.37810      -20.21120       -0.02580
C         20.43300      -21.13620        0.00650
H         19.89960      -20.18930        0.01730
C         19.72690      -22.33530        0.01350
H         18.63980      -22.32570        0.03090
C         20.41150      -23.54680       -0.00430
H         19.86130      -24.48410       -0.00190
C         21.80240      -23.56110       -0.02650
H         22.33980      -24.50600       -0.04510
C         22.51470      -22.36000       -0.02550
N         24.73580      -22.37730       -1.10260
C         26.07090      -22.38980       -0.77360
H         26.80160      -22.39430       -1.57220
C         26.35850      -22.39540        0.55530
H         27.32790      -22.40500        1.03490
S         24.90070      -22.38470        1.46180
C         24.00210      -22.37340       -0.02940
