23
Properties=species:S:1:pos:R:3:forces:R:3 energy=-24888.7118975108 stress="0.0 0.0 0.0 0.0 0.0 0.0 0.0 0.0 0.0" pbc="F F F"
C          3.91350       -2.14530       -1.78890
H          4.59220       -2.02310       -2.62860
C          2.70140       -1.46380       -1.77940
H          2.41280       -0.80290       -2.59180
C          1.82510       -1.64950       -0.71490
S          0.30020       -0.73240       -0.69150
N         -0.90130       -1.87870       -0.68720
C         -1.07550       -2.64210       -1.91380
H         -1.03510       -1.95990       -2.76420
H         -0.31760       -3.42910       -2.03770
H         -2.06640       -3.10440       -1.89050
C         -1.21240       -2.56730        0.55360
H         -1.13740       -1.86290        1.38360
H         -2.24490       -2.92390        0.49420
H         -0.55890       -3.43120        0.74000
C          2.18060       -2.43640        0.37720
H          1.53670       -2.49340        1.25150
C          3.39340       -3.11550        0.35710
H          3.66740       -3.74580        1.19780
C          4.25780       -2.97800       -0.72670
H          5.20550       -3.51040       -0.73820
O          0.21800       -0.03880        0.58470
O          0.20240       -0.02010       -1.95400
