16
Properties=species:S:1:pos:R:3:forces:R:3 energy=-11916.462229753788 stress="0.0 0.0 0.0 0.0 0.0 0.0 0.0 0.0 0.0" pbc="F F F"
C         13.00370       -2.57050        0.69340
N         13.23440       -3.65250       -0.14020
H         12.52730       -3.86860       -0.82600
C         14.44190       -5.85150       -0.17470
H         13.63700       -6.55520       -0.32800
C         15.83800       -6.14080       -0.02730
H         16.31370       -7.11200       -0.06690
C         16.45240       -4.94980        0.16890
H         17.48080       -4.65560        0.31790
O         15.54420       -3.93740        0.15880
C         14.33340       -4.50480       -0.03970
O         13.68690       -2.33000        1.66170
C         11.79790       -1.74110        0.28960
H         11.86470       -1.41830       -0.75520
H         11.75130       -0.86370        0.93490
H         10.87190       -2.31520        0.40900
