17
Properties=species:S:1:pos:R:3:forces:R:3 energy=-12850.325902559944 stress="0.0 0.0 0.0 0.0 0.0 0.0 0.0 0.0 0.0" pbc="F F F"
C         15.74840      -21.96000        0.00240
H         14.79910      -21.43400        0.00900
C         15.80920      -23.35100        0.01170
H         14.89750      -23.94290        0.02440
C         17.03910      -23.98920        0.00160
H         17.14440      -25.06620        0.00040
C         18.18140      -23.18160       -0.01670
N         18.14680      -21.84710       -0.02410
C         16.94700      -21.26210       -0.01630
H         16.95360      -20.17310       -0.02430
N         19.48160      -23.69930       -0.01210
H         20.18040      -22.97040       -0.05620
C         19.87150      -25.01650       -0.19450
N         21.24620      -25.16880       -0.19330
H         21.52580      -26.13830       -0.16030
H         21.80140      -24.55680        0.38710
O         19.11220      -25.94930       -0.38050
