18
Properties=species:S:1:pos:R:3:forces:R:3 energy=-12876.042426271726 stress="0.0 0.0 0.0 0.0 0.0 0.0 0.0 0.0 0.0" pbc="F F F"
C         13.90320      -15.02610       -0.00860
H         14.42930      -14.07520       -0.03290
C         12.51540      -15.05780       -0.02380
H         11.94500      -14.13270       -0.03770
C         11.87330      -16.28990       -0.01630
H         10.79030      -16.36720       -0.02350
C         12.66200      -17.43700       -0.00390
H         12.20400      -18.42460       -0.00220
N         13.99200      -17.42370        0.00180
C         14.60440      -16.23650        0.00850
N         16.86550      -17.17890       -0.47420
C         18.14240      -16.74600       -0.23580
H         18.99730      -17.32710       -0.55530
C         18.13650      -15.55030        0.42880
H         18.92890      -14.90950        0.78650
N         16.80950      -15.23790        0.58640
H         16.44020      -14.47020        1.12450
C         16.08190      -16.25620        0.03460
