22
Properties=species:S:1:pos:R:3:forces:R:3 energy=-13046.14046858926 stress="0.0 0.0 0.0 0.0 0.0 0.0 0.0 0.0 0.0" pbc="F F F"
C          3.94400       -2.07010       -1.86560
H          4.91790       -1.98390       -2.34190
C          3.19240       -0.92750       -1.61520
H          3.55690        0.05560       -1.90270
C          1.95100       -1.03040       -0.98720
C          1.14560        0.22330       -0.75670
C          1.44420       -2.28710       -0.65510
H          0.46880       -2.36140       -0.17940
C          2.19380       -3.42980       -0.91570
H          1.80190       -4.40530       -0.64410
C          3.44620       -3.32250       -1.51510
H          4.03150       -4.21710       -1.71330
N          0.95370        0.60330        0.54610
C          0.11620        1.75670        0.80750
H         -0.24230        2.14270       -0.14640
H          0.68580        2.53980        1.32520
H         -0.73930        1.48170        1.43680
C          1.54880       -0.03360        1.70330
H          2.29840       -0.76400        1.40130
H          0.78840       -0.53320        2.31850
H          2.04200        0.72280        2.32600
O          0.73100        0.88410       -1.69820
