13
Properties=species:S:1:pos:R:3:forces:R:3 energy=-10846.679087673394 stress="0.0 0.0 0.0 0.0 0.0 0.0 0.0 0.0 0.0" pbc="F F F"
O          4.15360      -17.74010       -0.76870
C          4.71870      -16.49300        1.20580
H          5.33320      -15.59100        1.10570
H          3.66090      -16.22460        1.22110
H          5.00510      -16.97230        2.14910
C          4.98540      -17.41750        0.04530
N          6.73620      -19.22730        0.00150
C          8.12190      -19.17730        0.01570
H          8.72130      -20.07690        0.02780
C          8.52030      -17.88600        0.01240
H          9.47020      -17.37420        0.01620
O          7.40260      -17.10500        0.00310
C          6.37710      -17.98840       -0.02580
