18
Properties=species:S:1:pos:R:3:forces:R:3 energy=-8457.061842048028 stress="0.0 0.0 0.0 0.0 0.0 0.0 0.0 0.0 0.0" pbc="F F F"
C          5.50190      -23.17280       -0.04040
C          6.81070      -22.41370       -0.00620
H          7.63350      -23.10090       -0.23600
C          7.07530      -21.72750        1.33820
H          7.11460      -22.46100        2.14970
H          6.28410      -21.00790        1.57660
H          8.02750      -21.18680        1.32030
H          6.81120      -21.65800       -0.80270
C          5.48070      -24.56770       -0.05070
H          6.42370      -25.11210       -0.04960
C          4.27640      -25.26620       -0.06420
H          4.28260      -26.35400       -0.07350
C          3.06990      -24.57430       -0.06940
H          2.12730      -25.11640       -0.08230
C          3.07680      -23.18210       -0.05690
H          2.13830      -22.63250       -0.05950
C          4.28270      -22.49000       -0.03760
H          4.28190      -21.40050       -0.02200
