14
Properties=species:S:1:pos:R:3:forces:R:3 energy=-4310.49938339728 stress="0.0 0.0 0.0 0.0 0.0 0.0 0.0 0.0 0.0" pbc="F F F"
C          0.12810        0.15800        0.16370
H          0.97410        0.10680       -0.53310
H         -0.65840        0.75420       -0.31050
C         -0.37410       -1.23520        0.54050
H         -0.75170       -1.75800       -0.34790
C          0.70040       -2.09500        1.22210
H          1.35590       -1.45210        1.82380
H          0.22090       -2.78530        1.92820
C          1.52480       -2.91520        0.23080
H          2.04970       -2.27170       -0.48640
H          2.27580       -3.52670        0.74150
H          0.87790       -3.58800       -0.34370
H         -1.23300       -1.12310        1.21470
H          0.46830        0.69830        1.05450
