14
Properties=species:S:1:pos:R:3:forces:R:3 energy=-31478.09131491636 stress="0.0 0.0 0.0 0.0 0.0 0.0 0.0 0.0 0.0" pbc="F F F"
C          1.99990      -24.66980       -0.87810
H          0.94700      -24.72360       -1.11920
C          2.82940      -25.67800       -0.50760
H          2.53810      -26.71480       -0.40010
N          4.12980      -25.32750       -0.26100
C          4.29210      -24.05870       -0.42840
S          2.87080      -23.18770       -0.92730
S          5.91360      -23.29270       -0.24020
C          5.60880      -21.91630        0.85440
H          5.10160      -22.28080        1.74900
H          6.59320      -21.52150        1.11260
H          5.02450      -21.15790        0.33220
O          6.76300      -24.23560        0.46770
O          6.30180      -22.73600       -1.53000
