19
Properties=species:S:1:pos:R:3:forces:R:3 energy=-12439.806543196757 stress="0.0 0.0 0.0 0.0 0.0 0.0 0.0 0.0 0.0" pbc="F F F"
C          5.61200      -17.49610        0.02050
H          6.16920      -18.42940        0.01750
C          4.22190      -17.49670        0.01930
H          3.68170      -18.43990        0.02960
C          3.52250      -16.29270        0.00130
H          2.43560      -16.29450       -0.00220
C          4.21860      -15.08650       -0.01300
H          3.67710      -14.14400       -0.02610
C          5.60850      -15.08450       -0.00210
H          6.15350      -14.14260       -0.01340
C          6.31500      -16.29010        0.00370
N          8.58900      -17.04150       -0.68020
C          9.86050      -16.72180       -0.27320
H         10.72600      -17.18710       -0.72560
C          9.83090      -15.79380        0.72960
H         10.60730      -15.31050        1.30380
N          8.49650      -15.52970        0.92880
H          8.10130      -14.92000        1.62740
C          7.78950      -16.29530        0.04770
