18
Properties=species:S:1:pos:R:3:forces:R:3 energy=-10939.237003608885 stress="0.0 0.0 0.0 0.0 0.0 0.0 0.0 0.0 0.0" pbc="F F F"
C         -3.07070        1.23360       -2.32630
H         -4.11960        1.43860       -2.52070
C         -2.07590        2.13250       -2.69470
H         -2.32920        3.06760       -3.18980
C         -0.75060        1.81690       -2.42230
H          0.06500        2.47990       -2.69250
C         -0.47650        0.60800       -1.78640
N         -1.42240       -0.26250       -1.42460
C         -2.68880        0.05410       -1.69620
H         -3.43860       -0.67620       -1.39160
C          0.93600        0.20520       -1.43900
H          1.03110       -0.87980       -1.59340
H          1.12350        0.39920       -0.36810
O          1.84990        0.91870       -2.23320
C          3.17980        0.55300       -1.96190
H          3.82230        1.14040       -2.62160
H          3.34960       -0.51740       -2.15630
H          3.45070        0.76660       -0.91600
