17
Properties=species:S:1:pos:R:3:forces:R:3 energy=-12850.01195189268 stress="0.0 0.0 0.0 0.0 0.0 0.0 0.0 0.0 0.0" pbc="F F F"
C         15.72590      -21.93200        0.05530
H         14.77820      -21.40290        0.08510
C         15.77910      -23.32270        0.01250
H         14.86820      -23.91540        0.00410
C         17.01650      -23.94850       -0.02960
H         17.12690      -25.02850       -0.07480
C         18.15960      -23.14950       -0.01500
N         18.12610      -21.82150        0.02770
C         16.92440      -21.23510        0.06030
H         16.93330      -20.14730        0.09460
N         19.43800      -23.76010       -0.05850
H         20.10840      -23.31010        0.55600
C         20.11840      -24.05850       -1.25300
N         19.34570      -24.43760       -2.31820
H         19.86150      -24.56170       -3.17720
H         18.38010      -24.15860       -2.40860
O         21.33440      -24.06240       -1.27870
