20
Properties=species:S:1:pos:R:3:forces:R:3 energy=-12003.154501905248 stress="0.0 0.0 0.0 0.0 0.0 0.0 0.0 0.0 0.0" pbc="F F F"
C         13.25990      -37.19970        0.00120
H         13.80670      -38.13990        0.00580
C         11.87040      -37.20200       -0.01060
H         11.33180      -38.14580       -0.01940
C         11.17090      -35.99890       -0.01510
H         10.08410      -35.99840       -0.02710
C         11.87120      -34.79490       -0.00760
H         11.33270      -33.85040       -0.01440
C         13.26100      -34.79300        0.01290
H         13.79700      -33.84610        0.00710
C         13.97430      -35.99770        0.02430
C         16.32220      -36.85280       -0.64910
H         16.03880      -37.66890       -1.30110
C         17.64050      -36.42050       -0.34440
H         18.56460      -36.85190       -0.70410
C         17.52990      -35.34310        0.49810
H         18.28730      -34.72860        0.96430
N         16.19770      -35.10090        0.69910
H         15.82170      -34.42380        1.34310
C         15.44360      -36.02630        0.01710
