21
Properties=species:S:1:pos:R:3:forces:R:3 energy=-13945.768492146663 stress="0.0 0.0 0.0 0.0 0.0 0.0 0.0 0.0 0.0" pbc="F F F"
C         29.17790      -17.06110       -1.50320
H         29.68020      -17.64450       -2.27010
C         27.79980      -17.07640       -1.35360
H         27.18320      -17.68280       -2.01210
C         27.22130      -16.30640       -0.35160
H         26.14680      -16.28830       -0.19870
C         28.06140      -15.55140        0.45930
H         27.64880      -14.93520        1.25500
N         29.38510      -15.52490        0.33000
C         29.93670      -16.26940       -0.63790
N         32.02460      -16.95880       -1.72640
C         33.35080      -16.68950       -1.56230
H         34.10880      -17.13570       -2.19450
C         33.53290      -15.81500       -0.52660
H         34.41600      -15.36800       -0.09340
N         32.28430      -15.53590       -0.03680
C         31.40330      -16.25450       -0.79860
C         32.02410      -14.63920        1.07980
H         32.98510      -14.25430        1.42830
H         31.52390      -15.17090        1.89040
H         31.38680      -13.81110        0.76630
