14
Properties=species:S:1:pos:R:3:forces:R:3 energy=-9710.234710851051 stress="0.0 0.0 0.0 0.0 0.0 0.0 0.0 0.0 0.0" pbc="F F F"
C         -0.12450       -0.09970       -0.08670
H         -0.20430        0.44500       -1.03450
H         -0.21840        0.64310        0.71500
C          1.23010       -0.79800        0.03990
H          1.32830       -1.56310       -0.74080
H          1.26910       -1.32450        0.99890
C          2.38750        0.19160       -0.06190
H          2.37020        0.71800       -1.02330
H          3.35390       -0.31460        0.02510
H          2.33120        0.94510        0.73200
C         -1.32220       -1.02420        0.04270
H         -1.65470       -1.44540       -0.91290
F         -2.37620       -0.34970        0.58360
F         -1.03740       -2.08340        0.85800
