22
Properties=species:S:1:pos:R:3:forces:R:3 energy=-13046.144404651439 stress="0.0 0.0 0.0 0.0 0.0 0.0 0.0 0.0 0.0" pbc="F F F"
C          3.97760       -2.05340       -1.80700
H          4.97270       -1.94280       -2.23070
C          3.21070       -0.92600       -1.54160
H          3.58580        0.07010       -1.75900
C          1.93840       -1.05210       -0.98200
C          1.19520        0.22600       -0.69960
C          1.42580       -2.32530       -0.72680
H          0.41560       -2.44440       -0.34400
C          2.18860       -3.45480       -1.00790
H          1.78280       -4.44040       -0.79940
C          3.46970       -3.32160       -1.53610
H          4.06700       -4.20490       -1.74540
N          0.14980        0.19950        0.19890
C         -0.68310        1.38950        0.23310
H         -0.79970        1.77930       -0.77820
H         -0.23840        2.18070        0.85490
H         -1.66340        1.12910        0.64230
C          0.21480       -0.49990        1.47210
H          1.00290       -1.25390        1.47560
H         -0.74800       -0.98130        1.68050
H          0.42160        0.20090        2.29450
O          1.48040        1.24910       -1.30590
