13
Properties=species:S:1:pos:R:3:forces:R:3 energy=-19635.565156625533 stress="0.0 0.0 0.0 0.0 0.0 0.0 0.0 0.0 0.0" pbc="F F F"
O         21.80120      -16.57740        0.00010
C         21.06230      -18.86600        0.00060
H         21.20510      -19.50340       -0.87780
H         20.06160      -18.43280        0.00100
H         21.20590      -19.50370        0.87870
C         22.08200      -17.75760        0.00030
N         23.97370      -19.37860        0.00030
C         25.34450      -19.37740        0.00020
H         25.87360      -20.32270        0.00030
C         25.93300      -18.14760       -0.00010
H         26.98980      -17.91690       -0.00030
S         24.73460      -16.92390       -0.00020
C         23.52470      -18.15820        0.00020
