13
Properties=species:S:1:pos:R:3:forces:R:3 energy=-10846.605610328528 stress="0.0 0.0 0.0 0.0 0.0 0.0 0.0 0.0 0.0" pbc="F F F"
O          4.39560      -17.19270        1.10510
C          4.34130      -17.21360       -1.29760
H          4.31920      -18.15520       -1.85890
H          3.32960      -16.81920       -1.18330
H          4.95590      -16.51010       -1.87120
C          4.95150      -17.43610        0.06100
N          6.72860      -19.22770        0.06180
C          8.11560      -19.16000        0.00960
H          8.72760      -20.05110        0.00930
C          8.49390      -17.86390       -0.03530
H          9.43610      -17.33940       -0.07960
O          7.36540      -17.09800       -0.01320
C          6.35750      -17.99400        0.05270
