14
Properties=species:S:1:pos:R:3:forces:R:3 energy=-8266.64291359089 stress="0.0 0.0 0.0 0.0 0.0 0.0 0.0 0.0 0.0" pbc="F F F"
C          2.89370       -3.39130        0.22330
H          3.31720       -2.44440       -0.12310
H          3.23360       -4.19650       -0.44440
H          3.29060       -3.58630        1.22500
N          1.43360       -3.25860        0.28640
H          1.09350       -3.09570       -0.65640
C          0.74200       -4.40210        0.75960
N          0.76550       -4.50390        2.12500
H          1.04400       -3.66260        2.60760
C         -0.15760       -5.39680        2.79600
H         -1.15170       -4.95270        2.93850
H          0.25160       -5.67680        3.76980
H         -0.27040       -6.29310        2.18490
O          0.14750       -5.17200        0.02690
