20
Properties=species:S:1:pos:R:3:forces:R:3 energy=-12003.155672890705 stress="0.0 0.0 0.0 0.0 0.0 0.0 0.0 0.0 0.0" pbc="F F F"
C         13.26680      -34.80060        0.02390
H         13.79640      -33.84980        0.01660
C         11.87730      -34.79360        0.00790
H         11.34640      -33.84460        0.01380
C         11.16820      -35.99210       -0.01330
H         10.08170      -35.98530       -0.02320
C         11.86240      -37.19810       -0.02530
H         11.32040      -38.13970       -0.04440
C         13.25140      -37.20440       -0.01450
H         13.78580      -38.15140       -0.01290
C         13.97740      -36.00830        0.01950
C         16.32760      -37.03260       -0.37180
H         16.06160      -37.99070       -0.80040
C         17.64390      -36.54940       -0.15340
H         18.56910      -37.07130       -0.35640
C         17.53230      -35.28660        0.36960
H         18.29020      -34.58040        0.67880
N         16.20160      -34.98370        0.45890
H         15.82970      -34.17060        0.92170
C         15.44520      -36.04430        0.01530
