23
Properties=species:S:1:pos:R:3:forces:R:3 energy=-24888.753094238156 stress="0.0 0.0 0.0 0.0 0.0 0.0 0.0 0.0 0.0" pbc="F F F"
C          3.79750       -2.35150       -1.87390
H          4.40750       -2.36130       -2.77300
C          2.60300       -1.63940       -1.85920
H          2.26270       -1.07980       -2.72600
C          1.81870       -1.65350       -0.71080
S          0.30050       -0.72800       -0.68680
N         -0.90600       -1.87460       -0.68790
C         -1.08860       -2.61650       -1.92730
H         -1.07950       -1.91500       -2.76250
H         -0.31930       -3.38660       -2.08480
H         -2.06990       -3.09780       -1.89400
C         -1.13560       -2.61830        0.54070
H         -1.10150       -1.92980        1.38660
H         -2.13800       -3.05280        0.49050
H         -0.40990       -3.42970        0.69570
C          2.24430       -2.30630        0.44250
H          1.66570       -2.23530        1.36060
C          3.43920       -3.01650        0.41740
H          3.77000       -3.54070        1.30900
C          4.21320       -3.04600       -0.74040
H          5.14710       -3.60240       -0.75590
O          0.22230       -0.04260        0.59330
O          0.20430       -0.01040       -1.94640
