11
Properties=species:S:1:pos:R:3:forces:R:3 energy=-5940.590275441651 stress="0.0 0.0 0.0 0.0 0.0 0.0 0.0 0.0 0.0" pbc="F F F"
F         13.26760      -26.49140        0.00520
C         14.39460      -25.68370       -0.00570
H         14.35530      -25.07410       -0.91820
H         14.35090      -25.00980        0.85860
C         15.64970      -26.53930        0.00370
H         15.81640      -26.94440        1.00770
H         15.46010      -27.39390       -0.65700
C         16.87260      -25.77120       -0.49050
H         17.08630      -24.90290        0.14420
H         16.72000      -25.40650       -1.51290
H         17.76390      -26.40630       -0.49400
