16
Properties=species:S:1:pos:R:3:forces:R:3 energy=-20705.14700109163 stress="0.0 0.0 0.0 0.0 0.0 0.0 0.0 0.0 0.0" pbc="F F F"
C         28.86750       -3.91590       -0.91530
N         29.43090       -4.73530        0.05190
H         28.88770       -4.78330        0.90720
C         31.06640       -6.59200        0.03270
H         30.32200       -7.37900        0.03740
C         32.47450       -6.80540       -0.00190
H         32.93640       -7.78730       -0.02250
C         33.18050       -5.64230        0.00040
H         34.25430       -5.51050       -0.01830
S         32.15280       -4.26160        0.05240
C         30.72770       -5.27100        0.02660
O         27.83290       -3.32800       -0.67660
C         29.57590       -3.83550       -2.24580
H         30.24440       -4.68380       -2.41740
H         30.16300       -2.91140       -2.28400
H         28.82090       -3.77800       -3.03310
