14
Properties=species:S:1:pos:R:3:forces:R:3 energy=-9710.18838550695 stress="0.0 0.0 0.0 0.0 0.0 0.0 0.0 0.0 0.0" pbc="F F F"
C         -0.12800       -0.09540       -0.08690
H         -0.21550        0.43590       -1.04030
H         -0.22410        0.64910        0.71130
C          1.22630       -0.79230        0.03830
H          1.31800       -1.55720       -0.74440
H          1.26940       -1.32370        0.99830
C          2.39310        0.18540       -0.05820
H          2.38520        0.71120       -1.02000
H          3.35570       -0.32770        0.03450
H          2.33970        0.94160        0.73360
C         -1.31630       -1.03290        0.04270
H         -1.07190       -1.97770        0.54420
F         -1.82560       -1.34030       -1.18470
F         -2.30890       -0.44320        0.77140
