17
Properties=species:S:1:pos:R:3:forces:R:3 energy=-8893.022537878716 stress="0.0 0.0 0.0 0.0 0.0 0.0 0.0 0.0 0.0" pbc="F F F"
C          1.52910       -1.89760       -2.28040
H          1.70910       -2.52420       -3.15070
C          2.43100       -1.89650       -1.22060
H          3.31800       -2.52360       -1.25410
C          2.18500       -1.08280       -0.11910
H          2.88130       -1.07010        0.71610
C          1.04910       -0.28220       -0.07100
H          0.86700        0.34650        0.79920
C          0.13720       -0.28500       -1.13250
C          0.39660       -1.09200       -2.24250
H         -0.31290       -1.08900       -3.06710
N         -1.04390        0.50280       -1.10130
H         -1.22410        0.80940       -0.15300
C         -1.08970        1.63920       -2.01480
H         -1.01640        1.28600       -3.04960
H         -0.29130        2.38190       -1.85290
H         -2.06000        2.13560       -1.90950
