14
Properties=species:S:1:pos:R:3:forces:R:3 energy=-31478.16648019863 stress="0.0 0.0 0.0 0.0 0.0 0.0 0.0 0.0 0.0" pbc="F F F"
C          2.01040      -24.63170       -0.88700
H          0.95920      -24.65040       -1.14250
C          2.78280      -25.66320       -0.45900
H          2.43700      -26.67810       -0.31150
N          4.09740      -25.36330       -0.20370
C          4.30870      -24.10630       -0.42570
S          2.95890      -23.19730       -0.98870
S          5.89050      -23.29260       -0.19390
C          7.04130      -24.64720       -0.22270
H          7.05010      -25.08110       -1.22470
H          8.02000      -24.22580        0.01870
H          6.73930      -25.38210        0.52690
O          6.11750      -22.46010       -1.36490
O          5.90680      -22.72320        1.14660
