16
Properties=species:S:1:pos:R:3:forces:R:3 energy=-10907.077855181524 stress="0.0 0.0 0.0 0.0 0.0 0.0 0.0 0.0 0.0" pbc="F F F"
C          7.54480      -21.30670        0.18960
H          6.64120      -20.71400        0.29860
C          7.52020      -22.69190        0.32020
H          6.59100      -23.21230        0.53630
C          8.70450      -23.39960        0.17240
H          8.75380      -24.47960        0.27050
C          9.86850      -22.68440       -0.10870
N          9.90530      -21.35590       -0.23120
C          8.76000      -20.68990       -0.08410
H          8.81940      -19.60810       -0.19150
C         11.17230      -23.43090       -0.26470
O         11.22080      -24.61700       -0.00750
C         12.36110      -22.65440       -0.77100
H         13.23890      -23.30110       -0.76820
H         12.16110      -22.29410       -1.78590
H         12.52890      -21.76660       -0.15400
