14
Properties=species:S:1:pos:R:3:forces:R:3 energy=-8266.879689984456 stress="0.0 0.0 0.0 0.0 0.0 0.0 0.0 0.0 0.0" pbc="F F F"
C         -0.01480       -5.51340        2.73870
H         -0.11220       -5.35820        3.81580
H          0.52870       -6.44880        2.55360
H         -1.01040       -5.61380        2.30440
N          0.63630       -4.35550        2.15220
H          1.46700       -4.02850        2.62530
C          0.65240       -4.25310        0.77270
N          1.47410       -3.24600        0.29890
H          1.62680       -2.47260        0.93090
C          1.38670       -2.90650       -1.11020
H          1.47180       -3.82160       -1.69760
H          2.21510       -2.24220       -1.36740
H          0.43740       -2.42360       -1.37570
O          0.00190       -4.98280        0.04180
