19
Properties=species:S:1:pos:R:3:forces:R:3 energy=-21331.95775554394 stress="0.0 0.0 0.0 0.0 0.0 0.0 0.0 0.0 0.0" pbc="F F F"
C         21.76590      -10.94520        0.00910
H         22.29790      -11.89260        0.01990
C         20.37590      -10.92490        0.00630
H         19.82430      -11.86130        0.00900
C         19.69240       -9.71170       -0.00250
H         18.60550       -9.69870       -0.00730
C         20.40470       -8.51640       -0.00650
H         19.87660       -7.56670       -0.01510
C         21.79560       -8.53540        0.00350
H         22.34950       -7.59970       -0.00340
C         22.49020       -9.74850        0.01310
C         24.80320       -9.03750        0.82410
H         24.42530       -8.36510        1.58670
C         26.18560       -9.29610        0.58130
H         26.99830       -8.83050        1.12830
C         26.37250      -10.19880       -0.42170
H         27.30630      -10.57590       -0.81840
S         24.87790      -10.75210       -1.07080
C         23.96940       -9.74530        0.00540
