19
Properties=species:S:1:pos:R:3:forces:R:3 energy=-11976.999679517325 stress="0.0 0.0 0.0 0.0 0.0 0.0 0.0 0.0 0.0" pbc="F F F"
C         -0.14160        0.12370       -1.56540
N         -1.48870        0.15130       -1.13640
H         -1.62220        0.26240       -0.14260
C          0.22680       -0.48620       -2.76470
H         -0.53520       -0.92450       -3.39910
C          1.56740       -0.51450       -3.13340
H          1.84860       -0.99570       -4.06730
C          2.54280        0.07130       -2.33180
H          3.58650        0.04730       -2.63340
C          2.16780        0.68810       -1.14180
H          2.91780        1.15020       -0.50480
C          0.83330        0.71180       -0.75590
H          0.54530        1.19030        0.17810
C         -2.58500        0.37260       -1.94070
C         -3.88370        0.53410       -1.17180
H         -3.85750        1.42890       -0.53970
H         -4.06600       -0.33090       -0.52540
H         -4.69940        0.62910       -1.88780
O         -2.51850        0.42070       -3.15350
