17
Properties=species:S:1:pos:R:3:forces:R:3 energy=-13416.14026635386 stress="0.0 0.0 0.0 0.0 0.0 0.0 0.0 0.0 0.0" pbc="F F F"
C         12.59850      -20.49560        0.00160
H         13.16960      -19.57180       -0.00020
C         11.20900      -20.48690        0.00310
H         10.66210      -19.54760        0.00390
C         10.53500      -21.70110       -0.00060
H          9.44950      -21.74580       -0.00220
C         11.28450      -22.87360       -0.00450
H         10.79320      -23.84500       -0.01080
N         12.61690      -22.90060       -0.00020
C         13.25400      -21.72710        0.01180
N         15.54350      -22.16330        0.93210
C         16.80680      -21.93380        0.40560
H         17.70270      -22.16820        0.96320
C         16.68410      -21.40800       -0.83240
H         17.36630      -21.08190       -1.60210
O         15.35410      -21.29220       -1.10520
C         14.73710      -21.77760       -0.00140
