17
Properties=species:S:1:pos:R:3:forces:R:3 energy=-12850.100940447215 stress="0.0 0.0 0.0 0.0 0.0 0.0 0.0 0.0 0.0" pbc="F F F"
C         15.45510      -17.03520        0.02100
H         14.50620      -16.51270        0.04260
C         15.54210      -18.42260        0.06640
H         14.64890      -19.04220        0.12500
N         16.69730      -19.07510        0.04610
C         17.80120      -18.31730       -0.02540
N         17.84480      -16.98610       -0.09060
C         16.66520      -16.36570       -0.05510
H         16.70470      -15.27970       -0.09860
N         18.97900      -19.05060       -0.00750
H         18.81420      -20.04180        0.12490
C         20.23580      -18.81560       -0.57050
C         20.61350      -17.40680       -0.94520
H         20.46130      -16.71940       -0.11040
H         19.99080      -17.04330       -1.76650
H         21.66010      -17.42160       -1.24990
O         20.98770      -19.75920       -0.70890
