14
Properties=species:S:1:pos:R:3:forces:R:3 energy=-19198.719330133135 stress="0.0 0.0 0.0 0.0 0.0 0.0 0.0 0.0 0.0" pbc="F F F"
O         21.19360       -5.32050        0.89790
C         21.41730       -4.73120       -1.41160
H         21.51570       -5.52980       -2.15590
H         20.37160       -4.43110       -1.32060
H         22.02170       -3.88710       -1.76180
C         21.91510       -5.21020       -0.06660
C         23.85290       -6.88120       -0.01650
H         23.20880       -7.75400       -0.03730
C         25.28010       -6.92150       -0.00790
H         25.86450       -7.83480       -0.02980
C         25.82950       -5.67590        0.03310
H         26.87830       -5.40750        0.05000
S         24.63290       -4.44180        0.05970
C         23.36180       -5.60990        0.01710
