17
Properties=species:S:1:pos:R:3:forces:R:3 energy=-13416.197367618373 stress="0.0 0.0 0.0 0.0 0.0 0.0 0.0 0.0 0.0" pbc="F F F"
C         12.59170      -20.48870        0.00220
H         13.15660      -19.56190       -0.00690
C         11.20210      -20.48770        0.00870
H         10.65060      -19.55100        0.01340
C         10.53390      -21.70550        0.00260
H          9.44880      -21.75550        0.00340
C         11.28980      -22.87440       -0.00840
H         10.80400      -23.84870       -0.01790
N         12.62140      -22.89340       -0.00540
C         13.25410      -21.71710        0.01000
N         15.52760      -22.44940        0.75450
C         16.79720      -22.04710        0.37210
H         17.68370      -22.46280        0.83020
C         16.69550      -21.11650       -0.60190
H         17.39140      -20.53790       -1.18900
O         15.37080      -20.91120       -0.84290
C         14.73410      -21.76310       -0.00130
