17
Properties=species:S:1:pos:R:3:forces:R:3 energy=-12850.123030125833 stress="0.0 0.0 0.0 0.0 0.0 0.0 0.0 0.0 0.0" pbc="F F F"
C         15.46170      -17.03310        0.00770
H         14.51300      -16.50960        0.01890
C         16.67330      -16.36550       -0.05510
H         16.71500      -15.27950       -0.09660
N         17.85250      -16.98680       -0.07430
C         17.80730      -18.31860       -0.02460
N         16.70100      -19.07430        0.04870
C         15.54710      -18.42080        0.05820
H         14.65250      -19.03900        0.11200
N         18.97740      -19.05960       -0.00020
H         18.81270      -20.05470        0.09150
C         20.29420      -18.77740       -0.36200
C         20.69430      -17.34840       -0.61510
H         20.45220      -16.71190        0.23870
H         20.15460      -16.93860       -1.47230
H         21.76690      -17.34240       -0.80880
O         21.07560      -19.70390       -0.44270
