10
Properties=species:S:1:pos:R:3:forces:R:3 energy=-6263.463399588359 stress="0.0 0.0 0.0 0.0 0.0 0.0 0.0 0.0 0.0" pbc="F F F"
O          0.09800       -2.06600        1.25210
H          0.88600       -1.82170        0.74840
C          0.34980       -3.35940        1.76130
H          1.21160       -3.34700        2.44460
H         -0.52690       -3.64070        2.35050
C          0.58020       -4.38240        0.62100
H          1.40730       -5.05090        0.87390
H         -0.31360       -5.00800        0.48140
O          0.93320       -3.73980       -0.58640
H          0.18820       -3.16510       -0.80800
