18
Properties=species:S:1:pos:R:3:forces:R:3 energy=-12413.41290915626 stress="0.0 0.0 0.0 0.0 0.0 0.0 0.0 0.0 0.0" pbc="F F F"
C          7.44470      -26.90850       -0.03400
H          6.52560      -26.33090       -0.06500
C          7.42530      -28.30180       -0.04040
H          6.48280      -28.84220       -0.07280
C          8.62480      -28.99450        0.00750
H          8.67070      -30.07830        0.03310
C          9.80430      -28.25060        0.03300
N          9.84440      -26.92340        0.05090
C          8.67510      -26.27340        0.01580
H          8.73930      -25.18690        0.02590
N         11.06060      -28.91150        0.07400
H         11.79150      -28.35700       -0.35510
C         11.46950      -29.62180        1.19770
C         12.96320      -29.87960        1.25760
H         13.38150      -30.06600        0.26400
H         13.47680      -29.01530        1.69290
H         13.13930      -30.74200        1.90030
O         10.69480      -30.02600        2.03970
