18
Properties=species:S:1:pos:R:3:forces:R:3 energy=-8899.634963220584 stress="0.0 0.0 0.0 0.0 0.0 0.0 0.0 0.0 0.0" pbc="F F F"
C          2.71340       -3.10580       -1.08930
H          3.75220       -2.79420       -1.24290
H          2.69440       -4.15770       -0.81080
H          2.17990       -2.98490       -2.03830
C          2.09950       -2.23660        0.00510
H          2.24440       -1.17900       -0.24050
H          2.63570       -2.41820        0.94800
N          0.66020       -2.41420        0.23710
C         -0.16060       -1.21920        0.30290
H         -1.00670       -1.37020        0.97740
H          0.43500       -0.39620        0.70560
H         -0.55140       -0.91410       -0.67920
C          0.10170       -3.66540        0.20700
C         -1.41430       -3.72990        0.15210
H         -1.84410       -3.46020        1.12410
H         -1.83620       -3.06200       -0.60400
H         -1.69560       -4.75900       -0.07130
O          0.76740       -4.68970        0.26320
