14
Properties=species:S:1:pos:R:3:forces:R:3 energy=-8266.590731962091 stress="0.0 0.0 0.0 0.0 0.0 0.0 0.0 0.0 0.0" pbc="F F F"
C          0.83520       -1.90150        0.22680
H          1.57920       -1.21650       -0.18940
H         -0.07740       -1.84740       -0.38450
H          0.59530       -1.55380        1.23720
N          1.42100       -3.24820        0.28690
H          1.63620       -3.51450       -0.67020
C          0.52060       -4.23690        0.77880
N          0.59020       -4.37120        2.13730
H          1.38610       -3.92510        2.56810
C          0.00400       -5.52350        2.78900
H          0.69530       -6.37470        2.84700
H         -0.31290       -5.25320        3.79970
H         -0.86890       -5.83170        2.21190
O         -0.20210       -4.89700        0.05510
