17
Properties=species:S:1:pos:R:3:forces:R:3 energy=-8892.9741329651 stress="0.0 0.0 0.0 0.0 0.0 0.0 0.0 0.0 0.0" pbc="F F F"
C          2.19100       -1.06190       -0.12400
H          2.88820       -1.03480        0.70980
C          2.46420       -1.84870       -1.23910
H          3.37730       -2.43660       -1.28460
C          1.55540       -1.87990       -2.29250
H          1.75550       -2.49480       -3.16670
C          0.38700       -1.12620       -2.23860
H         -0.31630       -1.16120       -3.06860
C          0.11830       -0.32150       -1.12700
C          1.02080       -0.31280       -0.06460
H          0.78670        0.29840        0.80360
N         -1.06650        0.47180       -1.02480
H         -1.33610        0.79430       -1.94760
C         -2.19510       -0.21190       -0.39800
H         -1.93120       -0.46920        0.63400
H         -2.50830       -1.13720       -0.90900
H         -3.04840        0.47330       -0.35760
