18
Properties=species:S:1:pos:R:3:forces:R:3 energy=-8899.803626845422 stress="0.0 0.0 0.0 0.0 0.0 0.0 0.0 0.0 0.0" pbc="F F F"
C          2.52800       -2.29360        2.01390
H          3.61700       -2.20410        2.08960
H          2.22580       -3.21360        2.52580
H          2.07890       -1.44160        2.53820
C          2.09870       -2.32840        0.55090
H          2.44020       -1.42220        0.03420
H          2.53180       -3.19250        0.04350
N          0.65370       -2.42120        0.37710
C         -0.14540       -1.23180        0.59250
H         -0.93850       -1.15450       -0.15750
H          0.49830       -0.35470        0.48900
H         -0.61330       -1.19610        1.58830
C          0.09930       -3.67260        0.30740
C         -1.41230       -3.73990        0.20150
H         -1.76370       -3.26040       -0.71860
H         -1.90260       -3.24520        1.04570
H         -1.69980       -4.79080        0.18420
O          0.78450       -4.68580        0.31410
