22
Properties=species:S:1:pos:R:3:forces:R:3 energy=-13046.101786463878 stress="0.0 0.0 0.0 0.0 0.0 0.0 0.0 0.0 0.0" pbc="F F F"
C          3.96900       -2.05730       -1.82840
H          4.95710       -1.94830       -2.26840
C          3.20570       -0.92920       -1.55690
H          3.57860        0.06620       -1.78030
C          1.93920       -1.05050       -0.98120
C          1.21600        0.23720       -0.68330
C          1.43630       -2.32250       -0.70230
H          0.43110       -2.44750       -0.30940
C          2.19650       -3.45280       -0.98690
H          1.79410       -4.43690       -0.76390
C          3.46750       -3.32380       -1.53960
H          4.06170       -4.20830       -1.75250
N          0.07280        0.20550        0.08700
C         -0.74450        1.40670        0.05470
H         -0.72500        1.83260       -0.94850
H         -0.37410        2.16970        0.75570
H         -1.77270        1.15010        0.32530
C         -0.04330       -0.53950        1.33110
H          0.80190       -1.21500        1.47490
H         -0.97860       -1.11260        1.34630
H         -0.06810        0.14760        2.18880
O          1.59550        1.28100       -1.19630
