21
Properties=species:S:1:pos:R:3:forces:R:3 energy=-13039.895605466883 stress="0.0 0.0 0.0 0.0 0.0 0.0 0.0 0.0 0.0" pbc="F F F"
C         21.83080      -19.60110       -0.00600
H         22.37920      -18.66170        0.00250
C         20.43930      -19.59810       -0.00120
H         19.89980      -18.65470        0.00450
C         19.74070      -20.80220        0.00780
H         18.65370      -20.80140        0.01730
C         20.43720      -22.00800        0.00620
H         19.89510      -22.95030        0.01430
C         21.82900      -22.01070       -0.01140
H         22.37910      -22.94900       -0.02920
C         22.53490      -20.80700       -0.02730
C         26.08630      -20.28780        1.14710
H         26.63090      -19.91270        2.00940
C         24.69820      -20.30550        1.14070
H         24.12560      -19.94280        1.99060
C         24.02910      -20.80690        0.02120
N         24.67280      -21.25060       -1.06540
C         26.00590      -21.21320       -1.04780
H         26.49510      -21.58110       -1.94750
C         26.76120      -20.75020        0.02420
H         27.84590      -20.75330       -0.02690
