14
Properties=species:S:1:pos:R:3:forces:R:3 energy=-12410.7026195265 stress="0.0 0.0 0.0 0.0 0.0 0.0 0.0 0.0 0.0" pbc="F F F"
C         -0.14690        0.00100        0.22440
H          0.15160       -0.57650       -0.65730
H          0.07710       -0.60600        1.10730
C          0.60290        1.33310        0.24960
H          0.26890        1.91840        1.11450
H          0.33330        1.90840       -0.64230
C          2.11350        1.13200        0.30620
H          2.40070        0.57150        1.20330
H          2.46900        0.57160       -0.56610
H          2.64410        2.08910        0.32660
C         -1.64760        0.15630        0.14820
F         -2.00470        1.14350       -0.70070
F         -2.18650        0.45310        1.34550
F         -2.23610       -0.96870       -0.30010
