22
Properties=species:S:1:pos:R:3:forces:R:3 energy=-12603.543629372363 stress="0.0 0.0 0.0 0.0 0.0 0.0 0.0 0.0 0.0" pbc="F F F"
C         13.18260      -21.99990        0.04330
H         13.69500      -22.95720        0.05340
C         11.79320      -22.00140        0.05150
H         11.26140      -22.94880        0.09320
C         11.08770      -20.80370        0.01100
H         10.00150      -20.80370        0.01960
C         11.79260      -19.60590       -0.03690
H         11.26020      -18.65830       -0.06380
C         13.18190      -19.60780       -0.05040
H         13.69490      -18.65070       -0.05860
C         13.91050      -20.80460       -0.02470
C         17.52500      -21.95910        0.30300
H         18.05770      -22.87270        0.55570
C         16.13560      -21.95640        0.31060
H         15.62400      -22.87050        0.59650
C         15.40670      -20.79900        0.00640
C         16.13430      -19.65220       -0.33880
H         15.62050      -18.73960       -0.62630
C         17.52360      -19.65340       -0.35240
H         18.05520      -18.74320       -0.61940
C         18.22950      -20.80690       -0.02830
H         19.31580      -20.80860       -0.03660
