19
Properties=species:S:1:pos:R:3:forces:R:3 energy=-12439.844079600854 stress="0.0 0.0 0.0 0.0 0.0 0.0 0.0 0.0 0.0" pbc="F F F"
C          5.60230      -15.07620        0.01310
H          6.13710      -14.12820        0.03280
C          4.21250      -15.08730        0.02870
H          3.66580      -14.14800        0.04720
C          3.52360      -16.29780        0.01740
H          2.43690      -16.30650        0.02540
C          4.23070      -17.49760        0.00490
H          3.69670      -18.44430        0.00730
C          5.62000      -17.48790       -0.00230
H          6.18670      -18.41520        0.01440
C          6.31570      -16.27740       -0.02240
N          8.55420      -17.15770        0.60750
C          9.84280      -16.78580        0.31700
H         10.68750      -17.33300        0.71400
C          9.85890      -15.69550       -0.50620
H         10.66160      -15.12730       -0.95200
N          8.53520      -15.38470       -0.71070
H          8.17550      -14.67040       -1.32380
C          7.78820      -16.28620       -0.00950
