14
Properties=species:S:1:pos:R:3:forces:R:3 energy=-31478.062117006964 stress="0.0 0.0 0.0 0.0 0.0 0.0 0.0 0.0 0.0" pbc="F F F"
C          1.99300      -24.68010       -0.89680
H          0.94420      -24.74990       -1.14950
C          2.83150      -25.67310       -0.50870
H          2.55340      -26.71260       -0.39590
N          4.12560      -25.30140       -0.24870
C          4.27510      -24.03340       -0.42900
S          2.83960      -23.18580       -0.94660
S          5.92170      -23.31770       -0.22390
C          5.61000      -21.58620        0.03780
H          5.11450      -21.16850       -0.83930
H          6.59110      -21.12780        0.17430
H          5.01190      -21.46900        0.94260
O          6.61520      -23.45430       -1.49810
O          6.47890      -23.85630        1.00710
