13
Properties=species:S:1:pos:R:3:forces:R:3 energy=-18603.27640268861 stress="0.0 0.0 0.0 0.0 0.0 0.0 0.0 0.0 0.0" pbc="F F F"
C         -1.10020       -1.39490       -0.64660
H         -0.48680       -1.22420       -1.53360
H         -0.76000       -0.78450        0.19190
H         -2.14880       -1.18780       -0.86730
S         -0.99020       -3.10480       -0.17210
O         -1.19970       -3.91370       -1.36440
N          0.61950       -3.23610        0.29670
H          1.18890       -3.26810       -0.54570
O         -1.81430       -3.29540        1.00950
C          0.91100       -4.38920        1.16480
H          0.76040       -5.36120        0.67560
H          0.26990       -4.32820        2.04580
H          1.95300       -4.30070        1.48000
