16
Properties=species:S:1:pos:R:3:forces:R:3 energy=-20705.15927309921 stress="0.0 0.0 0.0 0.0 0.0 0.0 0.0 0.0 0.0" pbc="F F F"
C         28.54820       -4.85050       -1.05300
N         29.45190       -4.75980       -0.00650
H         29.12360       -4.19440        0.76720
C         31.12050       -6.60300       -0.08380
H         30.40450       -7.40950       -0.18970
C         32.53220       -6.77860       -0.02780
H         33.02610       -7.74210       -0.10410
C         33.19720       -5.60310        0.13450
H         34.26490       -5.44320        0.20910
S         32.12160       -4.25950        0.23500
C         30.74130       -5.29820        0.02820
O         27.44020       -4.36940       -0.93610
C         29.03380       -5.53760       -2.30630
H         30.07840       -5.29490       -2.52250
H         28.39200       -5.23130       -3.13290
H         28.96020       -6.62590       -2.19980
