10
Properties=species:S:1:pos:R:3:forces:R:3 energy=-6263.447956821271 stress="0.0 0.0 0.0 0.0 0.0 0.0 0.0 0.0 0.0" pbc="F F F"
O          0.08280       -2.20020        0.94270
H          0.92850       -2.03670        0.50730
C          0.19920       -3.42480        1.58560
H          0.88570       -3.37060        2.45350
H         -0.81010       -3.67740        1.94340
O          0.67600       -4.38990        0.68220
C          0.22110       -5.69030        0.96670
H          0.60050       -6.34550        0.17960
H          0.58980       -6.05420        1.93820
H         -0.87840       -5.73930        0.96910
