16
Properties=species:S:1:pos:R:3:forces:R:3 energy=-9433.376014079204 stress="0.0 0.0 0.0 0.0 0.0 0.0 0.0 0.0 0.0" pbc="F F F"
C         -2.14020        1.07570       -0.84730
H         -2.68490        1.85660       -0.32230
C         -2.83200        0.03660       -1.46440
H         -3.91760        0.00220       -1.42410
C         -2.12440       -0.95750       -2.13420
H         -2.65450       -1.77440       -2.61740
C         -0.73410       -0.92150       -2.18350
H         -0.16820       -1.68770       -2.70820
C         -0.05120        0.12600       -1.56930
C         -0.75150        1.12530       -0.89870
H         -0.19440        1.93220       -0.43150
O          1.31810        0.22640       -1.65690
C          2.03670       -0.72100       -0.88870
H          3.09620       -0.52830       -1.07140
H          1.80590       -1.75250       -1.18830
H          1.82640       -0.60520        0.18320
