23
Properties=species:S:1:pos:R:3:forces:R:3 energy=-24888.777652662968 stress="0.0 0.0 0.0 0.0 0.0 0.0 0.0 0.0 0.0" pbc="F F F"
C          3.41990       -3.02380        0.42830
H          3.80010       -3.45850        1.34800
C          2.27930       -2.22950        0.46240
H          1.77570       -2.01700        1.40240
C          1.80050       -1.67930       -0.72240
S          0.30010       -0.72730       -0.69440
N         -0.92010       -1.86390       -0.68400
C         -1.10640       -2.61110       -1.92070
H         -1.14130       -1.90780       -2.75400
H         -0.31260       -3.35130       -2.10000
H         -2.06840       -3.12740       -1.86460
C         -1.10330       -2.61870        0.54750
H         -1.08690       -1.92830        1.39230
H         -2.08770       -3.09320        0.50940
H         -0.34090       -3.39750        0.69580
C          2.45210       -1.89250       -1.93200
H          2.06480       -1.42850       -2.83480
C          3.59240       -2.68830       -1.95580
H          4.10860       -2.86420       -2.89560
C          4.07450       -3.25710       -0.77900
H          4.96580       -3.87930       -0.80180
O          0.24050       -0.03510        0.58240
O          0.20520       -0.01560       -1.95730
