18
Properties=species:S:1:pos:R:3:forces:R:3 energy=-10939.14201743727 stress="0.0 0.0 0.0 0.0 0.0 0.0 0.0 0.0 0.0" pbc="F F F"
C         -3.08750        1.23910       -2.35290
H         -4.13420        1.44450       -2.55680
C         -2.08900        2.13820       -2.70700
H         -2.33360        3.07650       -3.19960
C         -0.76950        1.81260       -2.42040
H          0.04810        2.47980       -2.68220
C         -0.49890        0.60190       -1.78210
N         -1.45140       -0.26820       -1.43850
C         -2.71370        0.05510       -1.72750
H         -3.46720       -0.67640       -1.43830
C          0.93110        0.19430       -1.47890
H          1.57900        1.08340       -1.55360
H          1.26580       -0.52530       -2.23390
O          1.09970       -0.45060       -0.24680
C          0.87510        0.38980        0.86100
H          1.12380       -0.18890        1.75430
H         -0.17550        0.70690        0.92220
H          1.51320        1.28730        0.82730
