11
Properties=species:S:1:pos:R:3:forces:R:3 energy=-7300.758666323158 stress="0.0 0.0 0.0 0.0 0.0 0.0 0.0 0.0 0.0" pbc="F F F"
C          0.85980       -3.28740        2.66170
H          0.45270       -2.43420        3.20810
H          1.94000       -3.14860        2.52550
O          0.18460       -3.31380        1.41120
C          0.57560       -4.28930        0.53140
H          0.68130       -4.20170        3.24260
C          0.18600       -5.69250        0.93370
H         -0.84050       -5.70670        1.31220
H          0.84780       -6.06690        1.72420
O          1.11470       -4.00800       -0.50350
H          0.27700       -6.34720        0.06570
