19
Properties=species:S:1:pos:R:3:forces:R:3 energy=-12439.696427628327 stress="0.0 0.0 0.0 0.0 0.0 0.0 0.0 0.0 0.0" pbc="F F F"
C          5.60280      -15.07840        0.01440
H          6.14910      -14.13830        0.01880
C          4.21190      -15.08730        0.01910
H          3.66600      -14.14720        0.02490
C          3.52210      -16.29610        0.01650
H          2.43460      -16.30230        0.02000
C          4.22570      -17.49680        0.01100
H          3.69070      -18.44310        0.01030
C          5.61670      -17.48950        0.00620
H          6.17380      -18.42330        0.00420
C          6.31420      -16.27990        0.00610
N          8.58100      -16.26890        1.04700
C          9.86190      -16.26050        0.54920
H         10.71810      -16.25690        1.21150
C          9.85330      -16.25770       -0.81670
H         10.63870      -16.25160       -1.55900
N          8.52250      -16.26470       -1.16380
H          8.14890      -16.26490       -2.10040
C          7.79680      -16.27140       -0.00590
