18
Properties=species:S:1:pos:R:3:forces:R:3 energy=-21768.585827104278 stress="0.0 0.0 0.0 0.0 0.0 0.0 0.0 0.0 0.0" pbc="F F F"
C         21.82700      -21.14930       -0.00140
H         22.39360      -20.22260        0.01860
C         20.43740      -21.13430        0.00800
H         19.90740      -20.18540        0.01880
C         19.72690      -22.33210        0.01000
H         18.64010      -22.31960        0.01880
C         20.41100      -23.54480        0.00690
H         19.86130      -24.48190        0.01550
C         21.80100      -23.56360       -0.00670
H         22.33260      -24.51140       -0.00260
C         22.51750      -22.36430       -0.02640
N         24.70870      -21.39920        0.49300
C         26.04720      -21.66760        0.36890
H         26.76250      -20.95980        0.76930
C         26.36520      -22.82650       -0.26720
H         27.34560      -23.22930       -0.47660
S         24.92810      -23.64080       -0.73590
C         23.99390      -22.35100       -0.03240
