19
Properties=species:S:1:pos:R:3:forces:R:3 energy=-12882.596186279467 stress="0.0 0.0 0.0 0.0 0.0 0.0 0.0 0.0 0.0" pbc="F F F"
C         26.28760      -10.79310        0.99750
N         27.32980      -10.64880        0.09830
H         27.08760      -10.10550       -0.72120
N         28.74010      -12.61700        0.21540
C         30.09850      -12.77890        0.10620
H         30.55260      -13.75960        0.14320
C         30.72030      -11.57450       -0.03940
H         31.75880      -11.29720       -0.14820
N         29.71470      -10.63220       -0.02890
C         28.54830      -11.32240        0.11240
O         25.23060      -10.23420        0.78420
C         26.56500      -11.63790        2.21410
H         25.71760      -11.55290        2.89390
H         27.48720      -11.31190        2.70350
H         26.71940      -12.67990        1.91700
C         29.87320       -9.19670       -0.11370
H         30.92540       -8.95720        0.05420
H         29.57920       -8.81060       -1.09670
H         29.27450       -8.70580        0.65930
