14
Properties=species:S:1:pos:R:3:forces:R:3 energy=-12410.611414797053 stress="0.0 0.0 0.0 0.0 0.0 0.0 0.0 0.0 0.0" pbc="F F F"
C         -0.14130       -0.00200        0.15700
H          0.20650       -0.63900       -0.66120
H          0.04190       -0.54370        1.09110
C          0.60730        1.33040        0.19070
H          0.21470        1.93680        1.01300
H          0.40220        1.88580       -0.73250
C          2.11030        1.13340        0.35510
H          2.33820        0.60550        1.28820
H          2.52140        0.54320       -0.47200
H          2.63840        2.09180        0.37610
C         -1.64810        0.13600        0.01820
F         -2.30360       -0.76910        0.76700
F         -2.04320       -0.04960       -1.25890
F         -2.09130        1.35780        0.37500
