22
Properties=species:S:1:pos:R:3:forces:R:3 energy=-12603.556799361693 stress="0.0 0.0 0.0 0.0 0.0 0.0 0.0 0.0 0.0" pbc="F F F"
C         13.18950      -22.00430        0.00690
H         13.74040      -22.94170        0.01370
C         11.79780      -22.00680        0.00100
H         11.25960      -22.95110       -0.00040
C         11.09760      -20.80380       -0.00090
H         10.01030      -20.80480       -0.00290
C         11.79540      -19.59910       -0.00410
H         11.25500      -18.65620       -0.01160
C         13.18690      -19.59850       -0.00540
H         13.73550      -18.65980       -0.02150
C         13.89860      -20.80070        0.01770
C         17.51580      -21.00290        1.13050
H         18.07340      -21.19500        2.04350
C         16.12460      -21.03710        1.15000
H         15.59350      -21.25840        2.07270
C         15.39090      -20.80150       -0.01520
C         16.07690      -20.50350       -1.19530
H         15.50860      -20.29580       -2.09880
C         17.46800      -20.47590       -1.21830
H         17.98840      -20.25300       -2.14600
C         18.19060      -20.72570       -0.05490
H         19.27750      -20.70130       -0.07160
