14
Properties=species:S:1:pos:R:3:forces:R:3 energy=-9710.187163335822 stress="0.0 0.0 0.0 0.0 0.0 0.0 0.0 0.0 0.0" pbc="F F F"
C         -0.12470       -0.08990       -0.06730
H         -0.17680        0.42180       -1.03760
H         -0.23990        0.68130        0.70240
C          1.22910       -0.79070        0.05080
H          1.30370       -1.55730       -0.72720
H          1.28080       -1.31650        1.01230
C          2.39100        0.19000       -0.06710
H          2.37250        0.70710       -1.03360
H          3.35520       -0.32050        0.02080
H          2.34250        0.95200        0.71950
C         -1.32270       -1.02330        0.05010
H         -2.15210       -0.76630       -0.61830
F         -1.80460       -0.99840        1.33050
F         -0.96900       -2.31780       -0.19960
