17
Properties=species:S:1:pos:R:3:forces:R:3 energy=-8893.169685985373 stress="0.0 0.0 0.0 0.0 0.0 0.0 0.0 0.0 0.0" pbc="F F F"
C          1.52760       -1.85700       -2.29300
H          1.70970       -2.46690       -3.17480
C          2.42960       -1.87880       -1.23180
H          3.31840       -2.50170       -1.27580
C          2.17420       -1.09080       -0.11540
H          2.86730       -1.09390        0.72330
C          1.03860       -0.29040       -0.04910
H          0.86340        0.32110        0.83150
C          0.13140       -0.26390       -1.11730
C          0.39220       -1.06260       -2.24170
H         -0.31220       -1.05870       -3.07170
N         -1.04330        0.47730       -1.06850
H         -1.43970        0.65120       -1.98060
C         -1.19050        1.56990       -0.13190
H         -0.36010        2.29250       -0.16570
H         -2.12070        2.09770       -0.35560
H         -1.26350        1.18600        0.89160
