21
Properties=species:S:1:pos:R:3:forces:R:3 energy=-15739.61576184836 stress="0.0 0.0 0.0 0.0 0.0 0.0 0.0 0.0 0.0" pbc="F F F"
C         21.84920      -32.02020       -0.28380
H         22.40190      -31.14100       -0.59670
C         20.46590      -31.95700       -0.21760
H         19.95100      -31.02730       -0.44840
C         19.75310      -33.09020        0.14800
H         18.67040      -33.08930        0.21840
C         20.48130      -34.24420        0.41470
H         19.97240      -35.16500        0.69520
N         21.80590      -34.32290        0.34450
C         22.50210      -33.22250        0.02750
C         26.17280      -32.20260       -0.04100
H         26.73580      -31.27410       -0.07050
C         24.78540      -32.16470       -0.05320
H         24.31130      -31.18870       -0.06450
C         23.99960      -33.32410       -0.02370
C         24.70210      -34.53640        0.04070
C         26.09000      -34.59600        0.05350
H         26.56290      -35.57200        0.09630
C         26.83100      -33.42530        0.01160
H         27.91580      -33.46940        0.02170
F         24.06640      -35.71120        0.05830
