12
Properties=species:S:1:pos:R:3:forces:R:3 energy=-6760.668219400574 stress="0.0 0.0 0.0 0.0 0.0 0.0 0.0 0.0 0.0" pbc="F F F"
C         -0.88080       -3.11580        2.01010
H         -0.84590       -2.30880        2.74630
H         -1.63200       -2.86320        1.24690
H         -1.20770       -4.02170        2.52810
N          0.45980       -3.31910        1.47910
H          0.88730       -2.46750        1.13150
C          0.72750       -4.33520        0.57220
C          0.22770       -5.71220        0.95940
H          0.43890       -5.92720        2.01190
H         -0.85590       -5.79050        0.81380
H          0.72140       -6.44870        0.32430
O          1.42740       -4.13930       -0.40260
