21
Properties=species:S:1:pos:R:3:forces:R:3 energy=-13039.940270072304 stress="0.0 0.0 0.0 0.0 0.0 0.0 0.0 0.0 0.0" pbc="F F F"
C         21.83190      -22.00260       -0.00630
H         22.38060      -22.94210       -0.00120
C         20.44070      -22.00780       -0.00470
H         19.90330      -22.95230       -0.00140
C         19.74060      -20.80460        0.00620
H         18.65360      -20.80660        0.01440
C         20.43590      -19.59790        0.00740
H         19.89270      -18.65630        0.01620
C         21.82720      -19.59330       -0.00960
H         22.37810      -18.65580       -0.02720
C         22.53500      -20.79580       -0.02410
C         26.09240      -21.47370        1.04500
H         26.64160      -21.98360        1.83190
C         24.70430      -21.46570        1.04560
H         24.14000      -21.96460        1.82950
C         24.02730      -20.79200        0.02550
N         24.66610      -20.16170       -0.96760
C         25.99920      -20.19490       -0.96360
H         26.48240      -19.67620       -1.78940
C         26.76140      -20.82780        0.01260
H         27.84570      -20.81040       -0.04000
