10
Properties=species:S:1:pos:R:3:forces:R:3 energy=-6263.57181283292 stress="0.0 0.0 0.0 0.0 0.0 0.0 0.0 0.0 0.0" pbc="F F F"
O         -1.18190       -3.45650        1.77140
H         -1.60430       -3.25070        0.92660
C          0.20580       -3.42450        1.58110
H          0.53860       -2.45460        1.18910
H          0.63710       -3.59070        2.57910
O          0.68320       -4.39460        0.69260
C          0.21610       -5.69900        0.97810
H          0.62820       -6.35520        0.20870
H          0.56560       -6.03920        1.96530
H         -0.87870       -5.74640        0.96150
