18
Properties=species:S:1:pos:R:3:forces:R:3 energy=-12876.05174874782 stress="0.0 0.0 0.0 0.0 0.0 0.0 0.0 0.0 0.0" pbc="F F F"
C         13.92190      -15.05220       -0.00800
H         14.48400      -14.12250       -0.00820
C         12.53410      -15.06000       -0.05340
H         11.97830      -14.12740       -0.10220
C         11.87210      -16.28110       -0.02880
H         10.78800      -16.33960       -0.05900
C         12.63640      -17.44180        0.04140
H         12.15760      -18.41910        0.06880
N         13.96820      -17.45290        0.07730
C         14.59650      -16.27250        0.04170
N         16.82340      -15.90130        1.13140
C         18.11230      -16.21180        0.77200
H         18.94510      -15.98210        1.42320
C         18.14280      -16.82140       -0.45230
H         18.94860      -17.20870       -1.05890
N         16.82990      -16.88220       -0.85270
H         16.46280      -17.33880       -1.67420
C         16.07990      -16.30190        0.12670
