23
Properties=species:S:1:pos:R:3:forces:R:3 energy=-24888.705057525854 stress="0.0 0.0 0.0 0.0 0.0 0.0 0.0 0.0 0.0" pbc="F F F"
C          3.25890       -3.29530       -1.72360
H          3.48760       -3.94970       -2.55940
C          2.10750       -2.51730       -1.75900
H          1.46720       -2.53000       -2.63770
C          1.82120       -1.67730       -0.68640
S          0.30200       -0.74860       -0.65060
N         -0.91150       -1.88060       -0.69210
C         -1.27910       -2.48360       -1.96130
H         -2.32550       -2.79680       -1.89900
H         -1.18650       -1.73860       -2.75300
H         -0.67010       -3.36470       -2.20760
C         -1.07660       -2.70610        0.49460
H         -1.00630       -2.07260        1.38010
H         -2.07630       -3.14840        0.46690
H         -0.33210       -3.51270        0.55970
C          2.67470       -1.59870        0.40960
H          2.42200       -0.93110        1.22840
C          3.82480       -2.37990        0.43440
H          4.49350       -2.32450        1.28900
C          4.11660       -3.23190       -0.62800
H          5.01570       -3.84270       -0.60430
O          0.22670       -0.09330        0.64400
O          0.20900        0.00460       -1.89210
