16
Properties=species:S:1:pos:R:3:forces:R:3 energy=-20705.204705743505 stress="0.0 0.0 0.0 0.0 0.0 0.0 0.0 0.0 0.0" pbc="F F F"
C         28.32630       -5.30000       -0.57330
N         29.41970       -4.79190        0.10280
H         29.31230       -3.90240        0.56800
C         31.10010       -6.61390       -0.17080
H         30.38730       -7.39610       -0.39650
C         32.51330       -6.77880       -0.07460
H         33.01730       -7.72980       -0.20930
C         33.16600       -5.61820        0.20200
H         34.22920       -5.46200        0.32550
S         32.07350       -4.28690        0.35790
C         30.71610       -5.32360        0.03490
O         28.37330       -6.32780       -1.21550
C         27.07450       -4.45780       -0.42640
H         27.22440       -3.45490       -0.84120
H         26.26240       -4.94740       -0.96370
H         26.79560       -4.34980        0.62720
