16
Properties=species:S:1:pos:R:3:forces:R:3 energy=-11916.424632173897 stress="0.0 0.0 0.0 0.0 0.0 0.0 0.0 0.0 0.0" pbc="F F F"
C         13.09070       -2.39680        0.27770
N         13.22320       -3.68250       -0.22490
H         12.42370       -4.07740       -0.69430
C         14.44560       -5.86530       -0.20540
H         13.65280       -6.57540       -0.39200
C         15.83830       -6.14270       -0.00620
H         16.32300       -7.10980       -0.02350
C         16.43920       -4.94900        0.20630
H         17.45840       -4.64670        0.39360
O         15.52050       -3.93950        0.15750
C         14.33050       -4.51610       -0.08420
O         13.91880       -1.86330        0.97790
C         11.78230       -1.73690       -0.12650
H         10.92730       -2.25870        0.31860
H         11.78960       -0.70740        0.23190
H         11.65150       -1.73820       -1.21430
