18
Properties=species:S:1:pos:R:3:forces:R:3 energy=-12413.38197773143 stress="0.0 0.0 0.0 0.0 0.0 0.0 0.0 0.0 0.0" pbc="F F F"
C          7.40590      -26.92390        0.05020
H          6.48340      -26.35440        0.09040
C          7.40980      -28.31750        0.09170
H          6.47920      -28.87420        0.16810
C          8.61790      -28.98990        0.04600
H          8.66190      -30.07580        0.08820
C          9.79890      -28.24120       -0.06860
N          9.81010      -26.91140       -0.10490
C          8.63030      -26.28260       -0.04230
H          8.67890      -25.19630       -0.07560
N         11.03480      -28.91340       -0.03280
H         11.00200      -29.83120        0.39710
C         12.07780      -28.88080       -0.96090
C         12.21450      -27.66570       -1.84120
H         11.35420      -27.56540       -2.50880
H         13.12450      -27.78590       -2.43000
H         12.26260      -26.75100       -1.24490
O         12.85640      -29.81350       -0.99270
