16
Properties=species:S:1:pos:R:3:forces:R:3 energy=-20705.22387186104 stress="0.0 0.0 0.0 0.0 0.0 0.0 0.0 0.0 0.0" pbc="F F F"
C         28.26270       -5.39360        0.22800
N         29.43970       -4.74840       -0.10100
H         29.37950       -3.77710       -0.36880
C         31.08880       -6.60970        0.15250
H         30.35980       -7.39040        0.32300
C         32.50440       -6.78020        0.11170
H         32.99670       -7.73700        0.24710
C         33.17600       -5.61950       -0.11330
H         34.24430       -5.46900       -0.18990
S         32.09770       -4.27650       -0.28410
C         30.72240       -5.31220       -0.04370
O         28.22070       -6.55320        0.58250
C         27.03610       -4.51100        0.10220
H         27.09930       -3.65310        0.78040
H         26.15610       -5.10180        0.35620
H         26.92990       -4.12790       -0.91830
