14
Properties=species:S:1:pos:R:3:forces:R:3 energy=-4310.415521468912 stress="0.0 0.0 0.0 0.0 0.0 0.0 0.0 0.0 0.0" pbc="F F F"
C          0.13350        0.16430        0.16980
H          0.47460        0.70840        1.05790
H         -0.64910        0.76180       -0.30940
C         -0.37330       -1.22880        0.54230
H         -1.24730       -1.13200        1.19670
C          0.69920       -2.10540        1.22230
H          0.38370       -2.35990        2.24080
H          1.62580       -1.52710        1.33380
C          1.00400       -3.39090        0.45370
H          0.10490       -4.00900        0.35020
H          1.76690       -3.99100        0.96050
H          1.36940       -3.16540       -0.55470
H         -0.73460       -1.73220       -0.36410
H          0.97890        0.09930       -0.52470
