17
Properties=species:S:1:pos:R:3:forces:R:3 energy=-12850.131510944844 stress="0.0 0.0 0.0 0.0 0.0 0.0 0.0 0.0 0.0" pbc="F F F"
C         15.46390      -17.03230       -0.00130
H         14.51530      -16.50860        0.00360
C         16.67520      -16.36640       -0.08300
H         16.71700      -15.28150       -0.14610
N         17.85430      -16.98790       -0.09300
C         17.80960      -18.31840       -0.01620
N         16.70300      -19.07260        0.07210
C         15.54950      -18.41880        0.07540
H         14.65500      -19.03570        0.14420
N         18.97620      -19.06310       -0.00020
H         18.81310      -20.05860        0.08480
C         20.31800      -18.76140       -0.22240
C         20.72730      -17.32510       -0.41000
H         20.24350      -16.89190       -1.28860
H         20.42690      -16.71390        0.44390
H         21.81060      -17.31110       -0.52940
O         21.11240      -19.68020       -0.24790
