18
Properties=species:S:1:pos:R:3:forces:R:3 energy=-6416.047748802222 stress="0.0 0.0 0.0 0.0 0.0 0.0 0.0 0.0 0.0" pbc="F F F"
C          4.41740       -1.24870        0.44140
H          5.48370       -1.00540        0.48280
H          4.31960       -2.32520        0.62230
C          3.84110       -0.84720       -0.91560
H          4.40490       -1.35500       -1.71120
H          4.01980        0.22500       -1.08020
C          2.36820       -1.11440       -1.14560
C          1.88720       -0.68590       -2.51220
H          2.05320        0.38850       -2.66470
H          0.82490       -0.88130       -2.67120
H          2.44230       -1.20820       -3.30230
C          1.58240       -1.67460       -0.22250
H          2.03040       -1.94630        0.73130
C          0.12040       -1.98970       -0.32610
H         -0.44330       -1.47070        0.45920
H         -0.05520       -3.06230       -0.17630
H          3.92760       -0.71640        1.26480
H         -0.31220       -1.71070       -1.28880
