21
Properties=species:S:1:pos:R:3:forces:R:3 energy=-15739.728946390216 stress="0.0 0.0 0.0 0.0 0.0 0.0 0.0 0.0 0.0" pbc="F F F"
C         21.77040      -33.88850        0.96120
H         22.27220      -34.41910        1.76530
C         20.38560      -33.82120        0.89510
H         19.77400      -34.29160        1.65960
C         19.80160      -33.15360       -0.17390
H         18.72320      -33.07910       -0.27790
C         20.63960      -32.57600       -1.12150
H         20.22380      -32.04450       -1.97480
N         21.97160      -32.61210       -1.06120
C         22.52690      -33.26180       -0.03190
C         26.17080      -32.19430        0.00830
H         26.74230      -31.27070        0.01360
C         24.78090      -32.14890       -0.01410
H         24.26510      -31.19260       -0.04330
C         24.01860      -33.31770        0.00070
C         24.70740      -34.53020       -0.01900
C         26.09150      -34.60410       -0.00970
H         26.56770      -35.57890       -0.01280
C         26.82460      -33.42320        0.01100
H         27.91000      -33.46510        0.02380
F         24.01080      -35.68110       -0.03310
