21
Properties=species:S:1:pos:R:3:forces:R:3 energy=-13945.671552485845 stress="0.0 0.0 0.0 0.0 0.0 0.0 0.0 0.0 0.0" pbc="F F F"
C         29.16760      -17.06890       -1.50330
H         29.66050      -17.63260       -2.29050
C         27.78790      -17.07200       -1.35810
H         27.16600      -17.66670       -2.02220
C         27.21570      -16.29220       -0.35970
H         26.14070      -16.25710       -0.21310
C         28.06120      -15.54440        0.45240
H         27.65200      -14.91750        1.24110
N         29.38850      -15.54420        0.34010
C         29.93350      -16.30620       -0.61970
N         31.99640      -16.24590       -1.98450
C         33.32530      -16.07100       -1.71670
H         34.06360      -16.03170       -2.50700
C         33.52930      -15.96180       -0.36880
H         34.41770      -15.82000        0.22980
N         32.29180      -16.07170        0.21210
C         31.40000      -16.24270       -0.80930
C         32.02410      -16.01110        1.63990
H         32.96770      -16.15090        2.17210
H         31.33490      -16.81350        1.90970
H         31.56910      -15.05810        1.91920
