19
Properties=species:S:1:pos:R:3:forces:R:3 energy=-12439.699135059995 stress="0.0 0.0 0.0 0.0 0.0 0.0 0.0 0.0 0.0" pbc="F F F"
C         21.32560      -34.80900       -0.01360
H         21.87210      -33.86990       -0.03000
C         19.93790      -34.82940       -0.00670
H         19.37440      -33.90020       -0.01020
C         19.28320      -36.05560        0.00730
H         18.19960      -36.12120        0.01610
C         20.05840      -37.21150        0.00720
H         19.58560      -38.19290        0.01400
N         21.38910      -37.20970       -0.00790
C         22.01760      -36.02290       -0.00950
C         24.44590      -35.14440        0.37380
H         24.27080      -34.11870        0.67350
C         25.70350      -35.79390        0.27680
H         26.67580      -35.36330        0.47330
C         25.46580      -37.09240       -0.11230
H         26.14830      -37.91080       -0.29470
N         24.12090      -37.24680       -0.25630
H         23.60750      -38.09360       -0.44900
C         23.48260      -36.06800        0.02010
