14
Properties=species:S:1:pos:R:3:forces:R:3 energy=-7010.038854130671 stress="0.0 0.0 0.0 0.0 0.0 0.0 0.0 0.0 0.0" pbc="F F F"
C          0.03200       -0.03220       -0.02580
H          0.04230       -0.65710        0.87710
H          0.03760       -0.71380       -0.88410
C         -1.23920        0.81630       -0.01500
H         -1.21350        1.49020        0.85190
H         -1.24910        1.45990       -0.90510
C         -2.50860       -0.02810        0.02840
H         -2.53050       -0.65950        0.92460
H         -3.40740        0.59710        0.03780
H         -2.57000       -0.68990       -0.84360
C          1.31730        0.78700       -0.07430
H          1.15450        1.81910        0.26190
H          2.09630        0.34170        0.55570
F          1.81300        0.82480       -1.37190
