18
Properties=species:S:1:pos:R:3:forces:R:3 energy=-10939.124513814577 stress="0.0 0.0 0.0 0.0 0.0 0.0 0.0 0.0 0.0" pbc="F F F"
C         -3.09880        1.28960       -2.29380
H         -4.14430        1.52730       -2.46440
C         -2.08290        2.15380       -2.68850
H         -2.31390        3.09510       -3.18180
C         -0.76710        1.79210       -2.43760
H          0.06060        2.43840       -2.72030
C         -0.51040        0.57470       -1.80010
N         -1.47790       -0.26420       -1.43090
C         -2.74070        0.10100       -1.67020
H         -3.50520       -0.60450       -1.34900
C          0.93060        0.20350       -1.47830
H          1.55530        0.40540       -2.36650
H          1.29360        0.86680       -0.68260
O          1.12080       -1.09850       -1.01160
C          1.10660       -2.07550       -2.02640
H          1.30790       -3.03330       -1.54020
H          0.13300       -2.12610       -2.53020
H          1.88890       -1.88700       -2.77900
