21
Properties=species:S:1:pos:R:3:forces:R:3 energy=-13039.827408694637 stress="0.0 0.0 0.0 0.0 0.0 0.0 0.0 0.0 0.0" pbc="F F F"
C         21.83330      -19.59890        0.01090
H         22.38370      -18.66130        0.02460
C         20.44100      -19.59800       -0.01090
H         19.90100      -18.65470       -0.02070
C         19.74350      -20.80270       -0.01940
H         18.65630      -20.80230       -0.03700
C         20.44010      -22.00790       -0.00210
H         19.89930      -22.95080       -0.00500
C         21.83230      -22.00790        0.02000
H         22.38220      -22.94570        0.04110
C         22.53600      -20.80360        0.02090
C         26.11520      -20.79910       -1.17820
H         26.67980      -20.79600       -2.10680
C         24.72660      -20.79970       -1.19430
H         24.16900      -20.79730       -2.12660
C         24.03280      -20.80410        0.01700
N         24.64660      -20.80710        1.20580
C         25.98080      -20.80620        1.20180
H         26.45000      -20.80870        2.18360
C         26.76170      -20.80240        0.05110
H         27.84530      -20.80200        0.12470
