18
Properties=species:S:1:pos:R:3:forces:R:3 energy=-8899.803625242503 stress="0.0 0.0 0.0 0.0 0.0 0.0 0.0 0.0 0.0" pbc="F F F"
C          2.68640       -2.18520       -1.13600
H          3.77720       -2.09450       -1.09590
H          2.44020       -3.06700       -1.73740
H          2.28910       -1.29780       -1.64300
C          2.11280       -2.31870        0.27080
H          2.39770       -1.45130        0.88000
H          2.49590       -3.21710        0.75860
N          0.65800       -2.41830        0.29210
C         -0.11960       -1.21420        0.07980
H         -0.98410       -1.18570        0.75000
H          0.50740       -0.34840        0.30720
H         -0.48550       -1.10870       -0.95310
C          0.10370       -3.66960        0.22000
C         -1.41060       -3.73880        0.16900
H         -1.85420       -3.32230        1.08000
H         -1.81560       -3.18570       -0.68410
H         -1.69480       -4.78740        0.08530
O          0.78960       -4.68230        0.21260
