17
Properties=species:S:1:pos:R:3:forces:R:3 energy=-13416.24213542827 stress="0.0 0.0 0.0 0.0 0.0 0.0 0.0 0.0 0.0" pbc="F F F"
C         12.60530      -20.50440        0.00940
H         13.18920      -19.58880        0.03080
C         11.21710      -20.48800       -0.01420
H         10.67510      -19.54620       -0.02770
C         10.53400      -21.69830       -0.01170
H          9.44870      -21.73480       -0.02560
C         11.27620      -22.87660        0.01850
H         10.77960      -23.84540        0.03270
N         12.60720      -22.91080        0.03120
C         13.25070      -21.74060        0.00630
N         15.51180      -21.11730        0.84220
C         16.78030      -21.57800        0.52970
H         17.66210      -21.20080        1.02800
C         16.68450      -22.51130       -0.44110
H         17.38130      -23.12910       -0.98560
O         15.36600      -22.66230       -0.74720
C         14.72870      -21.78420        0.05520
