14
Properties=species:S:1:pos:R:3:forces:R:3 energy=-8266.70119332484 stress="0.0 0.0 0.0 0.0 0.0 0.0 0.0 0.0 0.0" pbc="F F F"
C          2.89630       -3.26160        0.40720
H          3.27920       -2.29290        0.07440
H          3.38600       -4.05510       -0.17590
H          3.17890       -3.38870        1.45680
N          1.43690       -3.26020        0.28280
H          1.18210       -3.16490       -0.69450
C          0.74630       -4.39270        0.76190
N          0.76720       -4.49690        2.12930
H          1.01960       -3.64960        2.61650
C         -0.16340       -5.39230        2.78810
H         -1.17070       -4.96600        2.88260
H          0.21650       -5.63890        3.78240
H         -0.23650       -6.30570        2.19690
O          0.13380       -5.15420        0.03370
