17
Properties=species:S:1:pos:R:3:forces:R:3 energy=-11376.41096625098 stress="0.0 0.0 0.0 0.0 0.0 0.0 0.0 0.0 0.0" pbc="F F F"
O         19.60770      -10.03330       -0.32910
C         18.82460      -12.19770        0.33150
H         18.83680      -12.34610        1.41650
H         17.84340      -11.83300        0.02370
H         19.04150      -13.16830       -0.12590
C         19.87640      -11.18650       -0.04170
N         21.66740      -12.91460       -0.01300
C         23.02930      -12.88040       -0.01540
H         23.62410      -13.78500       -0.03030
C         23.47070      -11.58350       -0.00100
H         24.46070      -11.14840        0.00120
N         22.35270      -10.79840        0.01190
C         21.28540      -11.64890        0.01290
C         22.34060       -9.34480        0.01250
H         23.37320       -9.00170        0.11010
H         21.90480       -8.96170       -0.91060
H         21.75360       -8.97740        0.85450
