22
Properties=species:S:1:pos:R:3:forces:R:3 energy=-13046.183128002858 stress="0.0 0.0 0.0 0.0 0.0 0.0 0.0 0.0 0.0" pbc="F F F"
C          3.97270       -2.05530       -1.81160
H          4.96510       -1.95040       -2.24310
C          3.20760       -0.92440       -1.55430
H          3.57990        0.06820       -1.79340
C          1.94240       -1.04630       -0.97920
C          1.16220        0.21860       -0.73650
C          1.42620       -2.31620       -0.71650
H          0.42470       -2.42080       -0.30620
C          2.18630       -3.44940       -0.99020
H          1.78320       -4.43330       -0.77040
C          3.46440       -3.32060       -1.52670
H          4.06010       -4.20640       -1.73110
N          0.39200        0.29000        0.39890
C         -0.44820        1.46450        0.54400
H         -0.72380        1.82820       -0.44560
H         -1.34820        1.20020        1.10720
H          0.07440        2.27290        1.07600
C          0.70100       -0.39060        1.64240
H         -0.20850       -0.84260        2.05560
H          1.44870       -1.16950        1.49450
H          1.09320        0.31710        2.38650
O          1.21780        1.14700       -1.53090
