15
Properties=species:S:1:pos:R:3:forces:R:3 energy=-7830.497055780245 stress="0.0 0.0 0.0 0.0 0.0 0.0 0.0 0.0 0.0" pbc="F F F"
C          2.46920       -1.31200        1.57030
H          3.55150       -1.14610        1.57130
H          2.20170       -1.83560        2.49330
H          1.98050       -0.33050        1.57550
C          2.04890       -2.12530        0.35340
H          2.54690       -3.09640        0.33550
H          2.32420       -1.59940       -0.57140
N          0.62670       -2.41000        0.36360
H         -0.01670       -1.63630        0.42760
C          0.12670       -3.66670        0.17610
C         -1.38830       -3.74610        0.16490
H         -1.84550       -2.89940       -0.35820
H         -1.76900       -3.75640        1.19250
H         -1.68440       -4.67680       -0.31980
O          0.84140       -4.64790        0.05160
