18
Properties=species:S:1:pos:R:3:forces:R:3 energy=-6415.9936063423975 stress="0.0 0.0 0.0 0.0 0.0 0.0 0.0 0.0 0.0" pbc="F F F"
C          2.34550       -1.17270       -1.09250
H          2.08130       -2.01040       -0.43780
H          2.09430       -1.45090       -2.12180
C          3.82590       -0.81690       -0.95800
H          4.42820       -1.69400       -1.24300
C          4.17500       -0.48060        0.49910
H          3.93170       -1.31720        1.16380
H          3.61110        0.39800        0.83480
H          5.24140       -0.25570        0.60870
C          4.20710        0.31600       -1.88650
H          3.41170        0.98770       -2.21910
C          5.45980        0.56670       -2.25760
H          6.25030       -0.09010       -1.88540
C          5.89240        1.68270       -3.15920
H          6.38580        1.28980       -4.05580
H          6.61530        2.33560       -2.65590
H          1.72140       -0.31660       -0.80800
H          5.04180        2.29510       -3.47690
