20
Properties=species:S:1:pos:R:3:forces:R:3 energy=-13476.15954065948 stress="0.0 0.0 0.0 0.0 0.0 0.0 0.0 0.0 0.0" pbc="F F F"
C         15.83430      -25.19280       -1.16900
H         15.27590      -25.20860       -2.10090
C         17.22270      -25.16870       -1.16390
H         17.77990      -25.16840       -2.09670
C         17.88220      -25.13690        0.05830
H         18.96620      -25.11250        0.11870
C         17.11410      -25.13500        1.21870
H         17.59110      -25.10830        2.19670
N         15.78070      -25.16900        1.23200
C         15.15680      -25.20370        0.05160
C         11.58050      -24.11390       -0.42610
H         11.01240      -23.26330       -0.79280
C         12.96880      -24.08890       -0.42230
H         13.51640      -23.22420       -0.78690
C         13.66060      -25.19800        0.06780
N         13.05030      -26.29860        0.51520
C         11.71670      -26.31020        0.49440
H         11.25090      -27.22090        0.86650
C         10.93500      -25.25180        0.04110
H          9.85170      -25.32520        0.05560
