14
Properties=species:S:1:pos:R:3:forces:R:3 energy=-9710.158656524049 stress="0.0 0.0 0.0 0.0 0.0 0.0 0.0 0.0 0.0" pbc="F F F"
C         -0.12280       -0.09350       -0.05420
H         -0.18880        0.40720       -1.02680
H         -0.21900        0.68970        0.70710
C          1.23290       -0.79150        0.06170
H          1.30300       -1.56410       -0.71170
H          1.29690       -1.31010        1.02640
C          2.39120        0.19180       -0.07370
H          2.36500        0.69850       -1.04520
H          3.35720       -0.31510        0.01360
H          2.34480        0.96170        0.70540
C         -1.33000       -1.02500        0.03360
H         -1.90130       -0.92700        0.96230
F         -0.95310       -2.33470       -0.06870
F         -2.18160       -0.78270       -1.00610
