14
Properties=species:S:1:pos:R:3:forces:R:3 energy=-9710.285428304533 stress="0.0 0.0 0.0 0.0 0.0 0.0 0.0 0.0 0.0" pbc="F F F"
C         -0.12970       -0.08370       -0.07130
H         -0.19530        0.41920       -1.04530
H         -0.24670        0.68800        0.69850
C          1.22080       -0.78940        0.04910
H          1.29270       -1.55320       -0.73250
H          1.26080       -1.31880        1.00890
C          2.38870        0.18530       -0.06170
H          2.37590        0.70610       -1.02630
H          3.35030       -0.33010        0.02710
H          2.34170        0.94460        0.72750
C         -1.30780       -1.02530        0.05260
H         -2.24910       -0.61310       -0.32790
F         -1.49630       -1.34810        1.36930
F         -1.06080       -2.19790       -0.60140
