14
Properties=species:S:1:pos:R:3:forces:R:3 energy=-31478.14016180215 stress="0.0 0.0 0.0 0.0 0.0 0.0 0.0 0.0 0.0" pbc="F F F"
C          2.01030      -24.65310       -0.89770
H          0.95850      -24.69410       -1.14890
C          2.81730      -25.67240       -0.50480
H          2.50500      -26.70250       -0.38920
N          4.12230      -25.34460       -0.24900
C          4.30000      -24.07810       -0.42050
S          2.91250      -23.19000       -0.96030
S          5.90120      -23.28750       -0.22250
C          5.72250      -22.31390        1.26600
H          5.48360      -22.97430        2.10150
H          6.69210      -21.83790        1.42600
H          4.95430      -21.55490        1.11340
O          6.88640      -24.32300        0.03890
O          6.05130      -22.34580       -1.32410
