13
Properties=species:S:1:pos:R:3:forces:R:3 energy=-18603.234709267927 stress="0.0 0.0 0.0 0.0 0.0 0.0 0.0 0.0 0.0" pbc="F F F"
C         -1.16610       -1.38820       -0.66820
H         -0.54320       -1.18790       -1.54240
H         -0.91690       -0.72630        0.16470
H         -2.21870       -1.27070       -0.93430
S         -0.98260       -3.08880       -0.17320
O         -1.21730       -3.88580       -1.36230
N          0.60660       -3.27560        0.27840
H          0.63640       -3.30270        1.29090
O         -1.75220       -3.29430        1.04210
C          1.65690       -2.47040       -0.33520
H          1.57050       -1.39550       -0.12710
H          1.65860       -2.63140       -1.41700
H          2.61230       -2.82120        0.05910
