14
Properties=species:S:1:pos:R:3:forces:R:3 energy=-4310.538085009915 stress="0.0 0.0 0.0 0.0 0.0 0.0 0.0 0.0 0.0" pbc="F F F"
C          0.10020       -3.26050        2.01850
H         -0.48690       -3.92570        1.37400
H          0.88230       -3.86140        2.49420
C          0.69300       -2.09950        1.22320
H          1.40370       -2.47190        0.47390
C         -0.37070       -1.23270        0.54340
H         -0.75950       -1.74870       -0.34410
H         -1.22270       -1.12250        1.22880
C          0.13900        0.15770        0.17060
H          0.98860        0.09810       -0.52010
H         -0.64190        0.75510       -0.31160
H          0.47540        0.70140        1.06130
H          1.27570       -1.46650        1.90690
H         -0.56660       -2.89260        2.80720
