15
Properties=species:S:1:pos:R:3:forces:R:3 energy=-5346.412765664298 stress="0.0 0.0 0.0 0.0 0.0 0.0 0.0 0.0 0.0" pbc="F F F"
C          4.69440       -2.11370       -0.96030
H          5.75030       -1.87640       -0.79420
H          4.61340       -2.66800       -1.90120
C          3.84460       -0.83680       -0.99320
H          4.20580       -0.17620       -1.78880
H          3.99390       -0.29690       -0.04620
C          2.37040       -1.10840       -1.18460
H          1.92150       -0.86970       -2.15070
C          1.60630       -1.66980       -0.25020
H          2.06910       -1.95280        0.69840
C          0.14060       -1.95330       -0.38900
H         -0.43650       -1.41590        0.37320
H         -0.06920       -3.02130       -0.25330
H          4.36760       -2.77810       -0.15270
H         -0.23210       -1.65390       -1.37430
