17
Properties=species:S:1:pos:R:3:forces:R:3 energy=-8893.163142740228 stress="0.0 0.0 0.0 0.0 0.0 0.0 0.0 0.0 0.0" pbc="F F F"
C          1.51510       -1.87300       -2.28240
H          1.69150       -2.48570       -3.16330
C          2.44400       -1.86250       -1.24400
H          3.34760       -2.46210       -1.30580
C          2.19480       -1.07320       -0.12710
H          2.90760       -1.05280        0.69460
C          1.04180       -0.30100       -0.03770
H          0.86860        0.30650        0.84630
C          0.10630       -0.30630       -1.08460
C          0.35930       -1.11110       -2.20950
H         -0.36080       -1.12670       -3.02580
N         -1.04400        0.44910       -1.03520
H         -1.74970        0.24490       -1.72220
C         -1.38850        1.29950        0.07460
H         -0.61700        2.06180        0.24000
H         -1.51680        0.74070        1.01360
H         -2.32760        1.81000       -0.15180
