18
Properties=species:S:1:pos:R:3:forces:R:3 energy=-8457.052701134078 stress="0.0 0.0 0.0 0.0 0.0 0.0 0.0 0.0 0.0" pbc="F F F"
C          5.49810      -23.16600       -0.06350
C          6.81150      -22.41170       -0.09120
H          6.88700      -21.79110        0.81260
C          6.99380      -21.51830       -1.32180
H          6.21020      -20.75600       -1.38500
H          6.95940      -22.10860       -2.24320
H          7.95890      -21.00230       -1.28440
H          7.63720      -23.13040       -0.03470
C          5.48040      -24.56120       -0.05420
H          6.42580      -25.10180       -0.06330
C          4.27950      -25.26510       -0.03880
H          4.29020      -26.35290       -0.03110
C          3.07050      -24.57790       -0.03200
H          2.12980      -25.12300       -0.01790
C          3.07340      -23.18580       -0.04380
H          2.13320      -22.63910       -0.03950
C          4.27620      -22.48790       -0.06520
H          4.26500      -21.39860       -0.06910
