10
Properties=species:S:1:pos:R:3:forces:R:3 energy=-6263.426707710203 stress="0.0 0.0 0.0 0.0 0.0 0.0 0.0 0.0 0.0" pbc="F F F"
O         -0.33870       -2.33140        0.90480
H          0.30290       -2.08560        0.22650
C          0.20880       -3.41660        1.58660
H         -0.59220       -3.80750        2.22880
H          1.05850       -3.09690        2.21720
O          0.66650       -4.38910        0.68090
C          0.21810       -5.69640        0.95710
H          0.57030       -6.33390        0.14320
H         -0.87990       -5.74400        0.99710
H          0.61910       -6.08070        1.90700
