17
Properties=species:S:1:pos:R:3:forces:R:3 energy=-13416.160957456224 stress="0.0 0.0 0.0 0.0 0.0 0.0 0.0 0.0 0.0" pbc="F F F"
C         12.61570      -20.52060        0.00650
H         13.20350      -19.60690        0.00850
C         11.22720      -20.48930       -0.02520
H         10.69600      -19.54160       -0.05410
C         10.53130      -21.69120       -0.01520
H          9.44540      -21.71620       -0.03700
C         11.25980      -22.87690        0.02930
H         10.75260      -23.83990        0.04580
N         12.59100      -22.92590        0.05550
C         13.24800      -21.76310        0.03040
N         15.51500      -21.48800        1.04130
C         16.78510      -21.78880        0.57290
H         17.66730      -21.60680        1.17030
C         16.68740      -22.30920       -0.66870
H         17.38340      -22.67910       -1.40560
O         15.36590      -22.35210       -1.00050
C         14.73030      -21.83360        0.07400
