21
Properties=species:S:1:pos:R:3:forces:R:3 energy=-15739.652507341905 stress="0.0 0.0 0.0 0.0 0.0 0.0 0.0 0.0 0.0" pbc="F F F"
C         21.84960      -32.10170       -0.47130
H         22.40410      -31.29340       -0.93790
C         20.46710      -32.03000       -0.39390
H         19.94290      -31.15420       -0.76870
C         19.76800      -33.08690        0.17390
H         18.68670      -33.07510        0.26430
C         20.50450      -34.17960        0.61800
H         20.00320      -35.03930        1.05930
N         21.82850      -34.27030        0.53320
C         22.50950      -33.23470        0.02650
C         26.16880      -32.19900       -0.03010
H         26.73010      -31.26940       -0.05110
C         24.78090      -32.16570       -0.04790
H         24.29320      -31.19500       -0.05130
C         24.00420      -33.33050       -0.02710
C         24.70660      -34.54060        0.03080
C         26.09420      -34.59670        0.04660
H         26.57110      -35.57080        0.08340
C         26.82960      -33.42120        0.01600
H         27.91460      -33.46160        0.02940
F         24.06320      -35.71210        0.03090
