20
Properties=species:S:1:pos:R:3:forces:R:3 energy=-12003.036715264625 stress="0.0 0.0 0.0 0.0 0.0 0.0 0.0 0.0 0.0" pbc="F F F"
C         13.27270      -34.80740       -0.00650
H         13.83100      -33.87450       -0.01640
C         11.88180      -34.79200       -0.00210
H         11.35430      -33.84140       -0.00750
C         11.16970      -35.98730        0.00740
H         10.08230      -35.97490        0.01050
C         11.85450      -37.19850        0.01110
H         11.30570      -38.13690        0.01610
C         13.24540      -37.21470        0.00700
H         13.78220      -38.16020        0.00850
C         13.97030      -36.01910        0.00570
C         16.36690      -36.04710        1.02540
H         16.12050      -36.05520        2.07890
C         17.66780      -36.04760        0.44940
H         18.60980      -36.05690        0.98120
C         17.50910      -36.03340       -0.91300
H         18.23380      -36.02880       -1.71600
N         16.16530      -36.02450       -1.17920
H         15.75550      -36.01120       -2.09980
C         15.45270      -36.03470       -0.00360
