22
Properties=species:S:1:pos:R:3:forces:R:3 energy=-13509.26176138124 stress="0.0 0.0 0.0 0.0 0.0 0.0 0.0 0.0 0.0" pbc="F F F"
C         21.64410      -17.44640       -0.38920
H         22.25770      -18.25100       -0.78680
C         20.26340      -17.46780       -0.54210
H         19.79320      -18.28700       -1.08020
C         19.48220      -16.44960       -0.00160
H         18.40220      -16.46920       -0.11960
C         20.09080      -15.41440        0.70190
H         19.49080      -14.62160        1.13890
C         21.47320      -15.38640        0.84480
H         21.93670      -14.58610        1.41560
C         22.26640      -16.39130        0.28090
N         24.44790      -17.49540        0.62170
C         25.74360      -17.07100        0.74620
H         26.55030      -17.76580        0.94120
C         25.81940      -15.71770        0.58120
H         26.64570      -15.02180        0.59470
N         24.53140      -15.29210        0.35530
C         23.73660      -16.40580        0.41240
C         24.16500      -13.93030        0.01450
H         24.97490      -13.48040       -0.56460
H         23.26320      -13.93580       -0.60130
H         23.99410      -13.31810        0.90720
