18
Properties=species:S:1:pos:R:3:forces:R:3 energy=-8457.056864032518 stress="0.0 0.0 0.0 0.0 0.0 0.0 0.0 0.0 0.0" pbc="F F F"
C          5.50470      -23.16600       -0.04260
C          6.81220      -22.40710       -0.09360
H          6.71060      -21.46740        0.46330
C          7.25620      -22.10610       -1.52980
H          6.50470      -21.50290       -2.05070
H          7.39060      -23.03300       -2.09730
H          8.20360      -21.55680       -1.54530
H          7.59090      -22.98640        0.41740
C          4.28460      -22.48630       -0.04190
H          4.28050      -21.39730       -0.03750
C          3.07830      -23.17930       -0.04320
H          2.13930      -22.63040       -0.03940
C          3.07310      -24.57100       -0.04790
H          2.13160      -25.11500       -0.04880
C          4.28140      -25.26120       -0.05180
H          4.28800      -26.34890       -0.05440
C          5.48460      -24.56230       -0.05000
H          6.42520      -25.11090       -0.04870
