18
Properties=species:S:1:pos:R:3:forces:R:3 energy=-6416.054243663041 stress="0.0 0.0 0.0 0.0 0.0 0.0 0.0 0.0 0.0" pbc="F F F"
C          3.04370       -1.89520       -1.78240
H          2.75270       -2.73950       -1.14680
H          3.63100       -2.28320       -2.62100
C          3.83550       -0.85430       -0.98300
H          4.75980       -1.32840       -0.62020
C          3.03380       -0.36340        0.22450
H          2.74460       -1.20030        0.87040
H          2.11540        0.13850       -0.10440
H          3.61150        0.34830        0.82390
C          4.22300        0.30070       -1.86590
H          3.39850        0.92580       -2.21890
C          5.46680        0.56080       -2.25980
H          6.26790       -0.08140       -1.88830
C          5.87940        1.67780       -3.17170
H          6.37700        1.28840       -4.06700
H          6.59070        2.34610       -2.67330
H          2.12760       -1.44960       -2.18960
H          5.01960        2.27490       -3.49300
