17
Properties=species:S:1:pos:R:3:forces:R:3 energy=-8893.173094411533 stress="0.0 0.0 0.0 0.0 0.0 0.0 0.0 0.0 0.0" pbc="F F F"
C          2.17590       -1.08810       -0.11690
H          2.87050       -1.08900        0.72060
C          2.42780       -1.88110       -1.23020
H          3.31540       -2.50580       -1.27350
C          1.52390       -1.86140       -2.29020
H          1.70410       -2.47420       -3.17040
C          0.39040       -1.06480       -2.24050
H         -0.31360       -1.05870       -3.07080
C          0.13040       -0.26380       -1.11650
C          1.04170       -0.28540       -0.05090
H          0.86980        0.32840        0.82870
N         -1.03320        0.48870       -1.07730
H         -1.42070        0.69920       -1.98440
C         -1.25250        1.48610       -0.05600
H         -0.45020        2.23860        0.00020
H         -2.19470        1.99840       -0.26450
H         -1.33900        1.01030        0.92720
