18
Properties=species:S:1:pos:R:3:forces:R:3 energy=-10939.227144356219 stress="0.0 0.0 0.0 0.0 0.0 0.0 0.0 0.0 0.0" pbc="F F F"
C         -3.07740        1.24730       -2.32680
H         -4.12480        1.46290       -2.51860
C         -2.07520        2.13950       -2.68860
H         -2.31670        3.08240       -3.17480
C         -0.75530        1.80430       -2.41440
H          0.06990        2.46810       -2.65760
C         -0.48740        0.58160       -1.80110
N         -1.44560       -0.27510       -1.43510
C         -2.70890        0.06090       -1.70360
H         -3.46630       -0.66140       -1.40150
C          0.94150        0.20350       -1.46760
H          0.92980       -0.79290       -1.00680
H          1.55770        0.16880       -2.37430
O          1.56800        1.15010       -0.62900
C          0.99830        1.19260        0.65990
H          1.55700        1.93670        1.23290
H         -0.06150        1.48310        0.62690
H          1.07630        0.21760        1.16580
