11
Properties=species:S:1:pos:R:3:forces:R:3 energy=-7300.7391043351645 stress="0.0 0.0 0.0 0.0 0.0 0.0 0.0 0.0 0.0" pbc="F F F"
C         -0.84460       -2.81390        1.40000
H         -0.86100       -2.01510        2.14430
H         -1.08900       -2.39700        0.41480
O          0.47530       -3.34190        1.41410
C          0.71560       -4.34990        0.51150
H         -1.59270       -3.57140        1.66970
C          0.21990       -5.70400        0.95580
H         -0.87260       -5.75930        0.87590
H          0.65600       -6.47080        0.31410
O          1.30050       -4.14300       -0.51610
H          0.49190       -5.88000        2.00050
