17
Properties=species:S:1:pos:R:3:forces:R:3 energy=-12850.299746412382 stress="0.0 0.0 0.0 0.0 0.0 0.0 0.0 0.0 0.0" pbc="F F F"
C         15.74680      -21.96000        0.00690
H         14.79710      -21.43450        0.01750
C         15.80830      -23.35130        0.01480
H         14.89730      -23.94420        0.02920
C         17.03970      -23.98620       -0.00380
H         17.14200      -25.06390       -0.01640
C         18.18050      -23.17770       -0.02010
N         18.14550      -21.84440       -0.02510
C         16.94420      -21.26080       -0.01520
H         16.94960      -20.17190       -0.02230
N         19.47820      -23.71020       -0.00430
H         20.17490      -22.97660        0.02980
C         19.85880      -24.92660       -0.56250
N         21.23230      -25.08050       -0.60680
H         21.50850      -26.02040       -0.85060
H         21.78610      -24.65950        0.12540
O         19.08920      -25.76360       -0.99340
