19
Properties=species:S:1:pos:R:3:forces:R:3 energy=-12439.656678958805 stress="0.0 0.0 0.0 0.0 0.0 0.0 0.0 0.0 0.0" pbc="F F F"
C         21.32780      -34.81280        0.02200
H         21.87950      -33.87660        0.03920
C         19.94010      -34.82800        0.01680
H         19.37920      -33.89730        0.02330
C         19.28210      -36.05240       -0.00110
H         18.19830      -36.11490       -0.01010
C         20.05380      -37.21080       -0.00490
H         19.57790      -38.19050       -0.01460
N         21.38480      -37.21400        0.01200
C         22.01580      -36.02910        0.01680
C         24.42670      -35.20920       -0.54950
H         24.23190      -34.23520       -0.98050
C         25.69050      -35.83960       -0.41050
H         26.65290      -35.44050       -0.70010
C         25.47220      -37.07270        0.15990
H         26.16400      -37.85990        0.42590
N         24.13300      -37.20480        0.37320
H         23.63110      -38.02990        0.66540
C         23.48150      -36.07050       -0.03050
