21
Properties=species:S:1:pos:R:3:forces:R:3 energy=-13040.000887103839 stress="0.0 0.0 0.0 0.0 0.0 0.0 0.0 0.0 0.0" pbc="F F F"
C         21.83630      -19.60700       -0.00930
H         22.39260      -18.67570       -0.02100
C         20.44770      -19.59840       -0.02330
H         19.91650      -18.64980       -0.04630
C         19.73930      -20.79580       -0.00820
H         18.65290      -20.78870       -0.01920
C         20.43250      -22.00160        0.02120
H         19.89070      -22.94410        0.03330
C         21.82240      -22.01120        0.03530
H         22.33100      -22.97060        0.05820
C         22.54430      -20.81420        0.02030
C         26.19610      -21.85300        0.07610
H         26.81050      -22.74970        0.09900
C         24.81260      -21.95790        0.06420
H         24.35250      -22.94040        0.07790
C         24.03960      -20.79140        0.03480
N         24.60550      -19.57670        0.01790
C         25.93310      -19.49090        0.02960
H         26.34210      -18.48170        0.01490
C         26.77960      -20.59270        0.05860
H         27.85700      -20.46230        0.06690
