22
Properties=species:S:1:pos:R:3:forces:R:3 energy=-13509.222737635542 stress="0.0 0.0 0.0 0.0 0.0 0.0 0.0 0.0 0.0" pbc="F F F"
C         21.46410      -15.34940        0.80460
H         21.89540      -14.52490        1.35910
C         20.08290      -15.39880        0.66060
H         19.47700      -14.59530        1.07000
C         19.47970      -16.46560        0.00160
H         18.39970      -16.50010       -0.11250
C         20.27120      -17.49420       -0.49910
H         19.81250      -18.34040       -1.00440
C         21.65070      -17.44830       -0.35120
H         22.27410      -18.25430       -0.72840
C         22.27110      -16.36180        0.27490
N         24.43570      -17.49870        0.13590
C         25.74270      -17.17820        0.36520
H         26.53960      -17.90020        0.23480
C         25.84860      -15.87310        0.74920
H         26.69470      -15.25320        1.00780
N         24.56810      -15.37320        0.76360
C         23.74090      -16.40890        0.40550
C         24.26570      -13.97270        1.00100
H         25.19530      -13.40550        0.91990
H         23.85230      -13.80990        2.00210
H         23.56710      -13.59780        0.24840
