19
Properties=species:S:1:pos:R:3:forces:R:3 energy=-12882.568528525206 stress="0.0 0.0 0.0 0.0 0.0 0.0 0.0 0.0 0.0" pbc="F F F"
C         26.75500       -9.44640        0.17080
N         27.20250      -10.71070       -0.13250
H         26.53310      -11.38220       -0.48240
N         28.64370      -12.55350       -0.22350
C         29.99880      -12.75800       -0.11990
H         30.42550      -13.74970       -0.19160
C         30.64800      -11.57660        0.05520
H         31.69240      -11.32280        0.16410
N         29.66830      -10.59770        0.07520
C         28.48610      -11.26100       -0.06980
O         27.42570       -8.62760        0.76600
C         25.32140       -9.19740       -0.25030
H         25.17850       -9.40340       -1.31580
H         24.64240       -9.84530        0.31440
H         25.07490       -8.15720       -0.04230
C         29.98580       -9.17720        0.02480
H         31.05420       -9.08760       -0.18260
H         29.42700       -8.69920       -0.78050
H         29.74230       -8.67970        0.96300
