18
Properties=species:S:1:pos:R:3:forces:R:3 energy=-10939.258920667726 stress="0.0 0.0 0.0 0.0 0.0 0.0 0.0 0.0 0.0" pbc="F F F"
C         -3.08050        1.24820       -2.30520
H         -4.12900        1.46500       -2.48910
C         -2.07980        2.13300       -2.68920
H         -2.32570        3.06780       -3.18710
C         -0.75640        1.79930       -2.43070
H          0.06920        2.44310       -2.72080
C         -0.48840        0.59170       -1.78680
N         -1.44150       -0.26530       -1.41240
C         -2.70710        0.06710       -1.67430
H         -3.46190       -0.65230       -1.35890
C          0.93960        0.19350       -1.46430
H          0.98150       -0.90270       -1.39950
H          1.23270        0.60060       -0.48880
O          1.87520        0.69680       -2.38710
C          1.86000        0.00880       -3.61670
H          2.63360        0.45800       -4.24410
H          0.88980        0.09950       -4.12560
H          2.08690       -1.06070       -3.48180
