16
Properties=species:S:1:pos:R:3:forces:R:3 energy=-11813.11759468317 stress="0.0 0.0 0.0 0.0 0.0 0.0 0.0 0.0 0.0" pbc="F F F"
C         12.32600      -11.04250        0.75930
N         13.48180      -10.80880        0.02540
H         13.41310       -9.98680       -0.55950
N         14.89490      -12.74020        0.38570
C         16.25370      -12.93280        0.23330
H         16.70810      -13.89550        0.41810
C         16.86970      -11.78620       -0.15370
H         17.90060      -11.55040       -0.36820
N         15.85100      -10.85170       -0.26310
H         15.96370       -9.86470       -0.42170
C         14.69730      -11.48520        0.08260
O         11.39170      -10.27700        0.63050
C         12.30450      -12.24330        1.66570
H         13.12330      -12.19710        2.38780
H         11.34340      -12.25980        2.17870
H         12.45720      -13.16180        1.09370
