17
Properties=species:S:1:pos:R:3:forces:R:3 energy=-11375.943154965278 stress="0.0 0.0 0.0 0.0 0.0 0.0 0.0 0.0 0.0" pbc="F F F"
O         19.01670      -11.71360        0.67030
C         19.48230      -10.15370       -1.07670
H         20.11320      -10.22640       -1.96860
H         18.43270      -10.28140       -1.35150
H         19.60140       -9.14930       -0.65380
C         19.84860      -11.20590       -0.04670
N         21.65690      -12.90870        0.02240
C         23.02190      -12.88030       -0.00730
H         23.60510      -13.79210       -0.01410
C         23.47220      -11.58860       -0.02300
H         24.46360      -11.15710       -0.04400
N         22.35280      -10.79680       -0.00380
C         21.28030      -11.64870        0.02500
C         22.36130       -9.34660        0.03440
H         23.35390       -9.01610        0.34650
H         22.14440       -8.91420       -0.94760
H         21.63300       -8.98080        0.76210
