17
Properties=species:S:1:pos:R:3:forces:R:3 energy=-13416.123882829124 stress="0.0 0.0 0.0 0.0 0.0 0.0 0.0 0.0 0.0" pbc="F F F"
C         12.61190      -20.51300        0.00290
H         13.19290      -19.59550        0.01030
C         11.22270      -20.48810        0.00860
H         10.68660      -19.54270        0.01910
C         10.53470      -21.69430        0.00350
H          9.44880      -21.72640        0.00930
C         11.27060      -22.87530       -0.00740
H         10.76790      -23.84080       -0.00920
N         12.60270      -22.91820       -0.01660
C         13.25230      -21.75130       -0.01890
N         15.54730      -22.02510       -0.99370
C         16.80800      -21.91490       -0.42360
H         17.70700      -22.04950       -1.00880
C         16.67860      -21.63250        0.89050
H         17.35690      -21.46610        1.71330
O         15.34710      -21.55690        1.17080
C         14.73670      -21.81240       -0.01030
