14
Properties=species:S:1:pos:R:3:forces:R:3 energy=-8266.75313247071 stress="0.0 0.0 0.0 0.0 0.0 0.0 0.0 0.0 0.0" pbc="F F F"
C          2.86490       -3.12290        0.57620
H          3.22710       -2.18000        0.15840
H          3.46820       -3.94720        0.17030
H          3.02690       -3.08910        1.65730
N          1.43790       -3.24680        0.28470
H          1.27030       -3.21010       -0.71410
C          0.74300       -4.36650        0.76670
N          0.76450       -4.48330        2.13470
H          0.98780       -3.63570        2.63570
C         -0.16290       -5.39600        2.77560
H         -1.18030       -4.98980        2.84660
H          0.20080       -5.63210        3.77850
H         -0.20550       -6.31240        2.18640
O          0.12310       -5.12080        0.03590
