14
Properties=species:S:1:pos:R:3:forces:R:3 energy=-31478.05648338215 stress="0.0 0.0 0.0 0.0 0.0 0.0 0.0 0.0 0.0" pbc="F F F"
C          1.99060      -24.68720       -0.89950
H          0.94250      -24.76370       -1.15310
C          2.83200      -25.67230       -0.49800
H          2.55720      -26.71120       -0.37320
N          4.12470      -25.29290       -0.23970
C          4.27000      -24.02630       -0.43520
S          2.83140      -23.19060       -0.96660
S          5.91770      -23.31870       -0.20940
C          5.64980      -21.56230       -0.27010
H          5.01360      -21.27050        0.56640
H          6.63820      -21.11140       -0.16400
H          5.21360      -21.29360       -1.23270
O          6.35390      -23.65500        1.13770
O          6.70600      -23.68620       -1.37800
