20
Properties=species:S:1:pos:R:3:forces:R:3 energy=-13476.47982637549 stress="0.0 0.0 0.0 0.0 0.0 0.0 0.0 0.0 0.0" pbc="F F F"
C         12.95660      -24.06380       -0.42580
H         13.49890      -23.19770       -0.79040
C         11.57100      -24.11840       -0.42580
H         10.98830      -23.27720       -0.79200
C         10.94160      -25.26540        0.04560
H          9.85950      -25.35160        0.06130
C         11.73720      -26.31050        0.50130
H         11.28420      -27.22560        0.87970
N         13.06870      -26.27150        0.51440
C         13.66490      -25.16690        0.05520
C         17.24980      -26.14440        0.68180
H         17.83160      -26.91900        1.17460
C         15.86400      -26.18360        0.71120
H         15.32070      -26.97750        1.21270
C         15.15690      -25.16680        0.06600
N         15.75450      -24.15960       -0.57800
C         17.08620      -24.14040       -0.60250
H         17.54040      -23.30780       -1.13770
C         17.88070      -25.10290        0.01020
H         18.96300      -25.03470       -0.03980
