22
Properties=species:S:1:pos:R:3:forces:R:3 energy=-12603.626848247091 stress="0.0 0.0 0.0 0.0 0.0 0.0 0.0 0.0 0.0" pbc="F F F"
C         16.10910      -21.81620       -0.65740
H         15.57330      -22.59170       -1.19980
C         17.49910      -21.82230       -0.66080
H         18.03030      -22.61540       -1.18090
C         18.20610      -20.82540        0.00490
H         19.29260      -20.83240        0.00750
C         17.50850      -19.82110        0.66950
H         18.04730      -19.03750        1.19600
C         16.11870      -19.81040        0.65950
H         15.58900      -19.03220        1.20430
C         15.39420      -20.80250       -0.01030
C         11.79330      -22.00390       -0.01150
H         11.25690      -22.94940       -0.02280
C         13.18330      -22.00450       -0.01300
H         13.71400      -22.95360        0.00230
C         13.90470      -20.80610        0.01590
C         13.18670      -19.60520        0.01640
H         13.72150      -18.65830       -0.00120
C         11.79690      -19.60100        0.00430
H         11.26320      -18.65400        0.00670
C         11.09280      -20.80150       -0.00500
H         10.00630      -20.79990       -0.00930
