19
Properties=species:S:1:pos:R:3:forces:R:3 energy=-12882.594669298931 stress="0.0 0.0 0.0 0.0 0.0 0.0 0.0 0.0 0.0" pbc="F F F"
C         26.37180      -10.65690       -1.09900
N         27.33820      -10.64810       -0.10990
H         27.05610      -10.17090        0.73720
N         28.75220      -12.61070       -0.22020
C         30.10890      -12.77450       -0.10860
H         30.55960      -13.75710       -0.14270
C         30.73190      -11.57110        0.04140
H         31.77060      -11.29550        0.15540
N         29.72880      -10.62750        0.02680
C         28.56110      -11.31530       -0.12480
O         25.31860      -10.07960       -0.91720
C         26.71790      -11.39610       -2.36720
H         25.91670      -11.23630       -3.08850
H         27.67280      -11.04590       -2.76960
H         26.83560      -12.46370       -2.15610
C         29.89010       -9.19410        0.13640
H         30.94550       -8.95540       -0.01050
H         29.58110       -8.82330        1.12070
H         29.30500       -8.68840       -0.63720
