14
Properties=species:S:1:pos:R:3:forces:R:3 energy=-9710.311522431683 stress="0.0 0.0 0.0 0.0 0.0 0.0 0.0 0.0 0.0" pbc="F F F"
C         -0.13400       -0.08460       -0.06570
H         -0.21730        0.44520       -1.02150
H         -0.24650        0.65840        0.73270
C          1.21680       -0.78820        0.05590
H          1.28810       -1.56270       -0.71760
H          1.26940       -1.30730        1.02300
C          2.38930        0.18020       -0.06900
H          2.37480        0.68890       -1.03970
H          3.34920       -0.33820        0.02190
H          2.35060        0.95050        0.71010
C         -1.30420       -1.03020        0.03560
H         -1.24330       -1.70460        0.89950
F         -1.38210       -1.80230       -1.08840
F         -2.46780       -0.32730        0.14230
