14
Properties=species:S:1:pos:R:3:forces:R:3 energy=-31478.209553434142 stress="0.0 0.0 0.0 0.0 0.0 0.0 0.0 0.0 0.0" pbc="F F F"
C          2.01280      -24.64510       -0.91040
H          0.96350      -24.68640       -1.17460
C          2.80560      -25.66700       -0.49030
H          2.48140      -26.69170       -0.36150
N          4.11110      -25.34600       -0.21750
C          4.29920      -24.08500       -0.43500
S          2.92690      -23.19220       -0.97880
S          5.88470      -23.28730       -0.18730
C          6.07020      -23.29840        1.58790
H          6.05840      -24.33580        1.93030
H          7.03790      -22.83940        1.80220
H          5.26420      -22.71730        2.03840
O          6.92230      -24.14110       -0.74640
O          5.71710      -21.90690       -0.61750
