15
Properties=species:S:1:pos:R:3:forces:R:3 energy=-5346.42747370117 stress="0.0 0.0 0.0 0.0 0.0 0.0 0.0 0.0 0.0" pbc="F F F"
C          4.19300       -0.05860        0.31360
H          5.27070        0.12250        0.37620
H          3.90300       -0.63600        1.19730
C          3.84790       -0.80220       -0.98170
H          4.41140       -1.74700       -1.01140
H          4.20240       -0.21760       -1.83780
C          2.37340       -1.08420       -1.15590
H          1.92170       -0.83630       -2.11940
C          1.60140       -1.64400       -0.22700
H          2.03310       -1.89870        0.74200
C          0.14830       -1.96880       -0.40690
H         -0.46570       -1.46350        0.34850
H         -0.03270       -3.04480       -0.29390
H          3.68110        0.90780        0.36340
H         -0.20690       -1.66460       -1.39720
