14
Properties=species:S:1:pos:R:3:forces:R:3 energy=-8266.855531481378 stress="0.0 0.0 0.0 0.0 0.0 0.0 0.0 0.0 0.0" pbc="F F F"
C          1.79300       -2.03520        1.03930
H          2.19380       -1.30230        0.33560
H          2.57050       -2.22140        1.78840
H          0.92390       -1.59060        1.54230
N          1.47010       -3.24240        0.30070
H          1.29850       -3.11540       -0.68620
C          0.63080       -4.23040        0.78890
N          0.62420       -4.36610        2.15640
H          1.41420       -3.98690        2.65500
C         -0.02110       -5.52600        2.73920
H         -0.95300       -5.70720        2.20240
H         -0.24650       -5.32490        3.78930
H          0.59140       -6.43450        2.66930
O         -0.03290       -4.93660        0.04480
