16
Properties=species:S:1:pos:R:3:forces:R:3 energy=-20705.230285681642 stress="0.0 0.0 0.0 0.0 0.0 0.0 0.0 0.0 0.0" pbc="F F F"
C         29.09570       -3.43440       -0.15990
N         29.43970       -4.73740        0.13520
H         28.70840       -5.39940        0.35020
C         31.07060       -6.57110        0.16690
H         30.33340       -7.35580        0.30600
C         32.47530       -6.78830        0.06600
H         32.94150       -7.76630        0.12350
C         33.17150       -5.63310       -0.11000
H         34.24250       -5.51650       -0.21430
S         32.14540       -4.24360       -0.16600
C         30.74390       -5.24670        0.06750
O         29.93270       -2.60570       -0.45710
C         27.61290       -3.14830       -0.07150
H         27.05210       -3.76100       -0.78530
H         27.23140       -3.36210        0.93240
H         27.44730       -2.09570       -0.29960
