15
Properties=species:S:1:pos:R:3:forces:R:3 energy=-5346.467453840489 stress="0.0 0.0 0.0 0.0 0.0 0.0 0.0 0.0 0.0" pbc="F F F"
C          4.05930        0.69550       -0.64640
H          5.12470        0.91850       -0.52440
H          3.67440        1.32990       -1.45300
C          3.84050       -0.78790       -0.96420
H          4.41230       -1.05260       -1.86260
H          4.23790       -1.39870       -0.14140
C          2.38840       -1.12350       -1.17110
H          1.94300       -0.79770       -2.11430
C          1.61180       -1.68480       -0.24700
H          2.07220       -1.99820        0.69270
C          0.14070       -1.94170       -0.39020
H         -0.08290       -3.01050       -0.29150
H         -0.42720       -1.42260        0.39090
H          3.54790        0.98140        0.27840
H         -0.23280       -1.60470       -1.36280
