15
Properties=species:S:1:pos:R:3:forces:R:3 energy=-21141.74254833707 stress="0.0 0.0 0.0 0.0 0.0 0.0 0.0 0.0 0.0" pbc="F F F"
C         28.59570      -16.53260        1.14470
N         29.34380      -16.82630        0.00410
H         28.75880      -16.95840       -0.81430
N         30.74650      -18.75370       -0.08840
C         32.08310      -19.07570       -0.06830
H         32.37200      -20.12050       -0.12180
C         32.94610      -18.03550        0.01220
H         34.02670      -18.05800        0.04000
S         32.07240      -16.55420        0.06280
C         30.59390      -17.46880       -0.00650
O         27.42360      -16.24680        1.02740
C         29.31940      -16.55040        2.47200
H         29.95770      -15.66550        2.56130
H         28.56630      -16.51720        3.26090
H         29.95070      -17.43690        2.59140
