10
Properties=species:S:1:pos:R:3:forces:R:3 energy=-6263.53987867418 stress="0.0 0.0 0.0 0.0 0.0 0.0 0.0 0.0 0.0" pbc="F F F"
O          0.12850       -2.08900        1.23500
H         -0.32670       -1.54410        1.88620
C          0.36560       -3.37580        1.79220
H          1.24720       -3.37100        2.44980
H         -0.50670       -3.69890        2.37820
C          0.56870       -4.33390        0.61860
H          1.61390       -4.26280        0.27160
H          0.40090       -5.36580        0.94390
O         -0.32520       -4.05170       -0.42800
H         -0.39850       -3.08500       -0.44520
