17
Properties=species:S:1:pos:R:3:forces:R:3 energy=-8893.12162075218 stress="0.0 0.0 0.0 0.0 0.0 0.0 0.0 0.0 0.0" pbc="F F F"
C          2.16450       -1.07550       -0.11310
H          2.84750       -1.06660        0.73310
C          2.43160       -1.88080       -1.21710
H          3.32210       -2.50260       -1.24380
C          1.53930       -1.88020       -2.28360
H          1.72960       -2.50530       -3.15320
C          0.39780       -1.08690       -2.25770
H         -0.28930       -1.10130       -3.09940
C          0.13500       -0.26380       -1.15620
C          1.02780       -0.28020       -0.07580
H          0.82000        0.33250        0.80020
N         -1.04850        0.47790       -1.06860
H         -1.02380        1.10670       -0.27690
C         -1.57360        1.12270       -2.25940
H         -2.00270        0.37890       -2.93910
H         -0.82470        1.70360       -2.81970
H         -2.38460        1.79190       -1.95960
