18
Properties=species:S:1:pos:R:3:forces:R:3 energy=-12979.657213623772 stress="0.0 0.0 0.0 0.0 0.0 0.0 0.0 0.0 0.0" pbc="F F F"
C         12.72100       -7.66210        0.01350
H         13.27680       -6.72990        0.01150
C         11.33220       -7.67390        0.01260
H         10.77340       -6.74140        0.01850
C         10.67230       -8.89700       -0.00290
H          9.58770       -8.95520       -0.00840
C         11.43820      -10.05780       -0.01290
H         10.96030      -11.03570       -0.02740
N         12.76970      -10.06600       -0.00210
C         13.39920       -8.88470        0.01560
C         15.74330       -9.77510        0.62850
H         15.47560      -10.65950        1.19160
C         17.04920       -9.25520        0.35990
H         17.99710       -9.66180        0.68620
C         16.86140       -8.14220       -0.39320
H         17.53150       -7.41970       -0.83550
O         15.53900       -7.92490       -0.60430
C         14.86810       -8.94570       -0.00020
