22
Properties=species:S:1:pos:R:3:forces:R:3 energy=-13509.229438392327 stress="0.0 0.0 0.0 0.0 0.0 0.0 0.0 0.0 0.0" pbc="F F F"
C         21.64510      -17.45180       -0.39230
H         22.25070      -18.25790       -0.79930
C         20.26340      -17.46140       -0.54750
H         19.78760      -18.27460       -1.08970
C         19.48950      -16.43930       -0.00430
H         18.40930      -16.45100       -0.12410
C         20.10290      -15.40720        0.70020
H         19.50540      -14.61050        1.13360
C         21.48460      -15.39070        0.84640
H         21.96840      -14.58640        1.39660
C         22.26940      -16.40370        0.28510
N         24.43280      -17.37590        1.03130
C         25.72690      -16.92370        1.05550
H         26.52250      -17.51810        1.48510
C         25.81340      -15.68580        0.48410
H         26.64140      -15.01310        0.31150
N         24.53380      -15.36270        0.09780
C         23.73880      -16.41620        0.45680
C         24.14050      -14.13980       -0.57450
H         24.89700      -13.87990       -1.31900
H         23.19000      -14.30040       -1.08670
H         24.03280      -13.30650        0.12930
