19
Properties=species:S:1:pos:R:3:forces:R:3 energy=-11977.03787068175 stress="0.0 0.0 0.0 0.0 0.0 0.0 0.0 0.0 0.0" pbc="F F F"
C         -0.15390        0.12540       -1.59330
N         -1.49670        0.20570       -1.17100
H         -1.64730        0.75780       -0.34030
C          0.22630       -0.47840       -2.79380
H         -0.52830       -0.91890       -3.43220
C          1.57250       -0.50720       -3.14290
H          1.86090       -0.98040       -4.07890
C          2.54500        0.05120       -2.31950
H          3.59190        0.01860       -2.60770
C          2.15980        0.65050       -1.12380
H          2.90530        1.09210       -0.46720
C          0.81980        0.68990       -0.76230
H          0.52620        1.15950        0.17460
C         -2.60010       -0.42190       -1.69980
C         -3.87940       -0.12740       -0.93640
H         -3.81120       -0.48890        0.09540
H         -4.07940        0.94890       -0.90430
H         -4.70440       -0.63190       -1.43820
O         -2.56680       -1.14260       -2.67930
