18
Properties=species:S:1:pos:R:3:forces:R:3 energy=-10939.155364341546 stress="0.0 0.0 0.0 0.0 0.0 0.0 0.0 0.0 0.0" pbc="F F F"
C         -3.09450        1.24890       -2.36380
H         -4.13980        1.45520       -2.57330
C         -2.09130        2.13850       -2.72900
H         -2.33080        3.06980       -3.23700
C         -0.77340        1.81330       -2.43580
H          0.04300        2.47970       -2.70340
C         -0.50340        0.60880       -1.78770
N         -1.46640       -0.24500       -1.41850
C         -2.72700        0.07640       -1.71460
H         -3.48500       -0.64380       -1.41110
C          0.91940        0.22960       -1.42280
H          0.99460       -0.86680       -1.45750
H          1.62760        0.65380       -2.14370
O          1.33500        0.70950       -0.16180
C          0.71990        0.06200        0.92780
H          1.25950        0.37280        1.82630
H         -0.33880        0.33560        1.02710
H          0.78610       -1.03280        0.82990
