13
Properties=species:S:1:pos:R:3:forces:R:3 energy=-19635.299823045883 stress="0.0 0.0 0.0 0.0 0.0 0.0 0.0 0.0 0.0" pbc="F F F"
O         21.59950      -17.20460        1.08980
C         21.23280      -18.13860       -1.09730
H         21.63810      -17.63950       -1.98490
H         20.18890      -17.85780       -0.94620
H         21.31480      -19.21820       -1.27080
C         22.04210      -17.77030        0.11990
N         23.93580      -19.35090        0.06550
C         25.30940      -19.37060        0.02270
H         25.82120      -20.32410        0.04380
C         25.91350      -18.15330       -0.04340
H         26.97120      -17.93260       -0.08730
S         24.72830      -16.91110       -0.04660
C         23.50490      -18.12840        0.03540
