11
Properties=species:S:1:pos:R:3:forces:R:3 energy=-7300.924994241052 stress="0.0 0.0 0.0 0.0 0.0 0.0 0.0 0.0 0.0" pbc="F F F"
C         -0.52900       -2.35670        0.61920
H         -0.72590       -1.55300        1.33000
H         -1.47920       -2.75470        0.23880
O          0.19740       -3.34990        1.33940
C          0.73450       -4.34710        0.57230
H          0.07080       -1.98290       -0.21670
C          0.21020       -5.70570        0.95560
H          0.28170       -5.84760        2.03730
H          0.77490       -6.47400        0.42760
O          1.47870       -4.12890       -0.34770
H         -0.84620       -5.77320        0.67500
