17
Properties=species:S:1:pos:R:3:forces:R:3 energy=-8893.173094893042 stress="0.0 0.0 0.0 0.0 0.0 0.0 0.0 0.0 0.0" pbc="F F F"
C          1.54500       -1.87240       -2.28820
H          1.74280       -2.49110       -3.16100
C          2.43150       -1.87660       -1.21760
H          3.32430       -2.49470       -1.24270
C          2.15680       -1.07470       -0.11200
H          2.83870       -1.06360        0.73510
C          1.01930       -0.28290       -0.07560
H          0.80930        0.33720        0.79400
C          0.11950       -0.27740       -1.15390
C          0.39820       -1.08540       -2.26560
H         -0.27660       -1.09680       -3.11680
N         -1.03110        0.49120       -1.07030
H         -0.96730        1.26290       -0.42380
C         -1.88070        0.70500       -2.21840
H         -1.34690        1.12390       -3.08600
H         -2.68080        1.39410       -1.93770
H         -2.34330       -0.23830       -2.52960
