18
Properties=species:S:1:pos:R:3:forces:R:3 energy=-10939.153369776184 stress="0.0 0.0 0.0 0.0 0.0 0.0 0.0 0.0 0.0" pbc="F F F"
C         -3.08360        1.24050       -2.32530
H         -4.13370        1.44690       -2.51260
C         -2.08980        2.13300       -2.70450
H         -2.33950        3.06780       -3.20180
C         -0.76550        1.80640       -2.43640
H          0.04890        2.47220       -2.71230
C         -0.48560        0.60120       -1.79440
N         -1.43630       -0.26420       -1.42880
C         -2.70200        0.06040       -1.69550
H         -3.45140       -0.66760       -1.38720
C          0.93680        0.20190       -1.46130
H          1.62960        0.95400       -1.87200
H          1.16050       -0.76420       -1.92280
O          1.15710        0.02130       -0.08360
C          0.97690        1.19980        0.66420
H          1.21770        0.95790        1.70280
H         -0.06250        1.55570        0.61400
H          1.64400        2.00840        0.32350
