14
Properties=species:S:1:pos:R:3:forces:R:3 energy=-10409.947197639889 stress="0.0 0.0 0.0 0.0 0.0 0.0 0.0 0.0 0.0" pbc="F F F"
O          4.06240       -4.00770        0.92880
C          4.23880       -3.87860       -1.45230
H          4.18130       -4.77670       -2.07780
H          3.25750       -3.40520       -1.38360
H          4.94940       -3.19540       -1.93300
C          4.71990       -4.22490       -0.06430
C          6.52270       -6.14240       -0.00710
H          5.90680       -7.03240       -0.01970
C          7.95450       -6.07150       -0.00100
H          8.65170       -6.89780       -0.00940
C          8.26040       -4.75140        0.01770
H          9.19030       -4.20110        0.03130
O          7.13470       -3.99580        0.02020
C          6.08240       -4.85910        0.02030
