17
Properties=species:S:1:pos:R:3:forces:R:3 energy=-12850.11552355508 stress="0.0 0.0 0.0 0.0 0.0 0.0 0.0 0.0 0.0" pbc="F F F"
C         15.73860      -21.96090        0.01580
H         14.78740      -21.43750        0.03550
C         15.79970      -23.35290        0.02660
H         14.88970      -23.94670        0.05090
C         17.03700      -23.97610       -0.00680
H         17.14650      -25.05530       -0.02290
C         18.17200      -23.16570       -0.02440
N         18.13550      -21.83820       -0.04410
C         16.93070      -21.25560       -0.02230
H         16.93270      -20.16730       -0.03430
N         19.46220      -23.75030       -0.04430
H         20.15090      -23.08780        0.29910
C         19.87970      -24.43080       -1.19970
N         21.25050      -24.60310       -1.24470
H         21.54090      -25.24060       -1.97200
H         21.74040      -24.71440       -0.36840
O         19.12760      -24.82130       -2.06790
