14
Properties=species:S:1:pos:R:3:forces:R:3 energy=-4310.531380740412 stress="0.0 0.0 0.0 0.0 0.0 0.0 0.0 0.0 0.0" pbc="F F F"
C          0.88010       -1.77810        2.70920
H          1.19060       -0.73860        2.86850
H          1.63890       -2.42340        3.16410
C          0.69680       -2.09650        1.22570
H          1.65000       -1.97940        0.69310
C         -0.37190       -1.23200        0.54660
H         -1.24790       -1.15510        1.20440
H         -0.71850       -1.73700       -0.36430
C          0.12710        0.16230        0.16920
H          0.45680        0.72970        1.04770
H         -0.65660        0.74520       -0.32600
H          0.97860        0.09520       -0.51800
H          0.42080       -3.15420        1.12720
H         -0.05820       -1.92890        3.25560
