23
Properties=species:S:1:pos:R:3:forces:R:3 energy=-24888.69912113909 stress="0.0 0.0 0.0 0.0 0.0 0.0 0.0 0.0 0.0" pbc="F F F"
C          2.86840       -3.75890       -1.24190
H          2.88450       -4.73540       -1.71750
C          1.70220       -2.99960       -1.26360
H          0.80280       -3.37170       -1.74850
C          1.70250       -1.74800       -0.65370
S          0.25780       -0.71180       -0.66690
N         -0.98180       -1.84780       -0.70320
C         -1.19540       -2.51340        0.57960
H         -0.30550       -3.08720        0.85440
H         -1.43060       -1.80370        1.38240
H         -2.02280       -3.21850        0.45790
C         -2.21260       -1.34630       -1.31670
H         -1.96850       -0.89880       -2.28090
H         -2.87330       -2.20200       -1.48070
H         -2.72800       -0.60280       -0.69160
C          2.83390       -1.25650       -0.01100
H          2.78750       -0.28640        0.47610
C          3.99310       -2.02420        0.00580
H          4.88280       -1.64790        0.50260
C          4.01080       -3.27380       -0.60960
H          4.91800       -3.87280       -0.59550
O          0.22710        0.01350        0.59790
O          0.20820        0.02400       -1.92410
