14
Properties=species:S:1:pos:R:3:forces:R:3 energy=-7010.035530657186 stress="0.0 0.0 0.0 0.0 0.0 0.0 0.0 0.0 0.0" pbc="F F F"
C          0.02980       -0.02040       -0.03480
H          0.05940       -0.62730        0.87820
H          0.01880       -0.72200       -0.87710
C         -1.24480        0.82260       -0.02270
H         -1.21720        1.50020        0.84140
H         -1.27380        1.46250       -0.91550
C         -2.50770       -0.03200        0.03620
H         -2.52060       -0.65330        0.93930
H         -3.41120        0.58610        0.04220
H         -2.56630       -0.70390       -0.82810
C          1.31240        0.80640       -0.04050
H          1.74270        0.90210       -1.04330
H          1.12420        1.81690        0.34640
F          2.26040        0.22280        0.78840
