17
Properties=species:S:1:pos:R:3:forces:R:3 energy=-22204.714825796735 stress="0.0 0.0 0.0 0.0 0.0 0.0 0.0 0.0 0.0" pbc="F F F"
C         30.13080      -21.10770       -0.00840
H         30.70900      -20.18830       -0.00860
C         28.74280      -21.08780        0.01070
H         28.20460      -20.14430        0.02710
C         28.05840      -22.29690        0.00800
H         26.97280      -22.33300        0.02250
C         28.79800      -23.47460       -0.01440
H         28.29870      -24.44160       -0.01810
N         30.13160      -23.51440       -0.03340
C         30.77610      -22.34550       -0.02840
N         32.98380      -22.62920       -1.09110
C         34.32080      -22.61810       -0.77100
H         35.04470      -22.78310       -1.55840
C         34.61700      -22.39880        0.53910
H         35.58880      -22.35000        1.01090
S         33.16740      -22.19060        1.43410
C         32.26580      -22.41470       -0.03150
