17
Properties=species:S:1:pos:R:3:forces:R:3 energy=-11375.897693435987 stress="0.0 0.0 0.0 0.0 0.0 0.0 0.0 0.0 0.0" pbc="F F F"
O         19.14670      -11.17930        0.94080
C         19.35750      -10.76190       -1.41160
H         20.02830      -10.00160       -1.83010
H         18.34410      -10.36590       -1.32870
H         19.37340      -11.61530       -2.09980
C         19.84190      -11.20060       -0.04870
N         21.64670      -12.93450        0.04000
C         23.01850      -12.88930        0.06430
H         23.61180      -13.79410        0.08060
C         23.45470      -11.59370        0.06850
H         24.44140      -11.15240        0.08920
N         22.32300      -10.81520        0.04660
C         21.26830      -11.67980        0.02410
C         22.28200       -9.36560        0.06000
H         22.43820       -8.94810       -0.94120
H         23.06270       -8.99090        0.72640
H         21.31290       -9.03630        0.44230
