21
Properties=species:S:1:pos:R:3:forces:R:3 energy=-15739.683151437348 stress="0.0 0.0 0.0 0.0 0.0 0.0 0.0 0.0 0.0" pbc="F F F"
C         21.85000      -32.20440        0.62160
H         22.40770      -31.47080        1.19680
C         20.46710      -32.12970        0.54850
H         19.93420      -31.32180        1.04380
C         19.77980      -33.09600       -0.17510
H         18.69890      -33.07670       -0.27030
C         20.52450      -34.10680       -0.77360
H         20.02970      -34.89180       -1.34250
N         21.84930      -34.20370       -0.69310
C         22.51540      -33.25240       -0.02900
C         26.16380      -32.19540        0.02420
H         26.72300      -31.26460        0.04490
C         24.77530      -32.16720        0.03790
H         24.27410      -31.20250        0.04340
C         24.00850      -33.33700        0.01220
C         24.71160      -34.54480       -0.03250
C         26.09880      -34.59710       -0.04060
H         26.58030      -35.56920       -0.06960
C         26.82800      -33.41660       -0.01350
H         27.91320      -33.45280       -0.02210
F         24.06000      -35.71260       -0.03090
