20
Properties=species:S:1:pos:R:3:forces:R:3 energy=-13476.19357978555 stress="0.0 0.0 0.0 0.0 0.0 0.0 0.0 0.0 0.0" pbc="F F F"
C         21.68760      -24.19580        0.00240
H         22.24190      -23.25990        0.00350
C         20.29530      -24.19450        0.00460
H         19.75340      -23.25210        0.00740
C         19.59920      -25.40040        0.00320
H         18.51200      -25.39970        0.00490
C         20.29370      -26.60720       -0.00040
H         19.75050      -27.54890       -0.00150
C         21.68600      -26.60790       -0.00250
H         22.23890      -27.54450       -0.00530
C         22.38310      -25.40230       -0.00120
C         25.80690      -25.40240       -1.18420
H         26.29340      -25.40070       -2.15810
N         24.47530      -25.40130       -1.19640
C         23.87420      -25.40340       -0.00350
N         24.47910      -25.40630        1.18740
C         25.81060      -25.40730        1.17090
H         26.30030      -25.40970        2.14330
C         26.54340      -25.40540       -0.00780
H         27.62790      -25.40620       -0.00950
