20
Properties=species:S:1:pos:R:3:forces:R:3 energy=-13476.175262685929 stress="0.0 0.0 0.0 0.0 0.0 0.0 0.0 0.0 0.0" pbc="F F F"
C         15.88070      -25.05550        1.16870
H         15.35390      -24.90590        2.10730
C         17.26830      -25.07880        1.11200
H         17.86100      -24.93110        2.01090
C         17.87950      -25.30380       -0.11550
H         18.96060      -25.33600       -0.21440
C         17.06740      -25.49570       -1.22810
H         17.50670      -25.68260       -2.20610
N         15.73340      -25.46680       -1.19390
C         15.15690      -25.23390       -0.01140
C         11.57660      -24.10190       -0.39610
H         11.00850      -23.23890       -0.73320
C         12.96500      -24.09320       -0.43500
H         13.51630      -23.23720       -0.81460
C         13.65710      -25.21600        0.02200
N         13.04800      -26.32100        0.46090
C         11.71340      -26.31560        0.48210
H         11.24720      -27.22790        0.84910
C         10.93210      -25.23970        0.07400
H          9.84880      -25.30040        0.12130
