11
Properties=species:S:1:pos:R:3:forces:R:3 energy=-5940.516151204932 stress="0.0 0.0 0.0 0.0 0.0 0.0 0.0 0.0 0.0" pbc="F F F"
F         13.26360      -26.49330        0.00090
C         14.39150      -25.68480        0.00430
H         14.33680      -25.01260       -0.85890
H         14.34680      -25.07220        0.91420
C         15.65670      -26.54040       -0.00400
H         15.35870      -27.53210        0.35580
H         16.02320      -26.67370       -1.02690
C         16.75200      -25.98430        0.90270
H         16.39670      -25.90000        1.93580
H         17.07570      -24.98810        0.57910
H         17.63230      -26.63450        0.90530
