19
Properties=species:S:1:pos:R:3:forces:R:3 energy=-12882.709393512037 stress="0.0 0.0 0.0 0.0 0.0 0.0 0.0 0.0 0.0" pbc="F F F"
C         26.84650       -9.65100       -0.86190
N         27.23150      -10.65050        0.01090
H         26.50350      -11.22380        0.41400
N         28.62980      -12.58690       -0.02840
C         29.99250      -12.78130       -0.04870
H         30.41790      -13.77600       -0.06010
C         30.64850      -11.58720       -0.03640
H         31.69730      -11.32460       -0.03510
N         29.66670      -10.61710       -0.01650
C         28.48240      -11.28610       -0.03240
O         27.62930       -9.12350       -1.62730
C         25.38110       -9.28020       -0.77480
H         24.75450      -10.10130       -1.14010
H         25.09020       -9.06650        0.25850
H         25.20790       -8.40120       -1.39470
C         29.90860       -9.18870        0.09940
H         30.89060       -9.05030        0.55750
H         29.87090       -8.69710       -0.87440
H         29.15150       -8.74690        0.74940
