18
Properties=species:S:1:pos:R:3:forces:R:3 energy=-8899.568204042855 stress="0.0 0.0 0.0 0.0 0.0 0.0 0.0 0.0 0.0" pbc="F F F"
C          2.92520       -3.27620        1.17030
H          3.89840       -2.87840        1.47740
H          3.07600       -3.99450        0.36470
H          2.48350       -3.80550        2.01740
C          2.04840       -2.11710        0.72530
H          2.04340       -1.34960        1.51340
H          2.50610       -1.63640       -0.15520
N          0.64600       -2.40970        0.40820
C         -0.13540       -1.19720        0.24310
H         -1.13900       -1.40630       -0.12490
H          0.35220       -0.53340       -0.48200
H         -0.21810       -0.64780        1.19160
C          0.11900       -3.67320        0.29490
C         -1.39260       -3.76560        0.16620
H         -1.73180       -3.38270       -0.80280
H         -1.91010       -3.21280        0.95560
H         -1.65770       -4.82090        0.23140
O          0.79190       -4.69400        0.28440
