11
Properties=species:S:1:pos:R:3:forces:R:3 energy=-5940.554255854154 stress="0.0 0.0 0.0 0.0 0.0 0.0 0.0 0.0 0.0" pbc="F F F"
F         13.26620      -26.49430        0.00240
C         14.39250      -25.68450        0.00530
H         14.33910      -25.01000       -0.85700
H         14.35310      -25.07510        0.91780
C         15.65330      -26.53860       -0.00560
H         15.40300      -27.46860        0.51860
H         15.91620      -26.81490       -1.03190
C         16.82400      -25.86040        0.70140
H         16.57340      -25.63550        1.74440
H         17.09830      -24.91720        0.21420
H         17.71040      -26.50230        0.70360
