18
Properties=species:S:1:pos:R:3:forces:R:3 energy=-12875.96453354943 stress="0.0 0.0 0.0 0.0 0.0 0.0 0.0 0.0 0.0" pbc="F F F"
C         13.93860      -15.07490       -0.02310
H         14.51690      -14.15590       -0.04600
C         12.55090      -15.06000       -0.05420
H         12.00980      -14.11890       -0.10500
C         11.87220      -16.27120       -0.01940
H         10.78690      -16.31510       -0.04190
C         12.62030      -17.44230        0.04650
H         12.12640      -18.41180        0.07630
N         13.95220      -17.47510        0.07820
C         14.59630      -16.30390        0.04210
N         16.84390      -16.31610        1.14830
C         18.13410      -16.34640        0.67600
H         18.97760      -16.33430        1.35370
C         18.15110      -16.39450       -0.69020
H         18.95120      -16.43070       -1.41550
N         16.82830      -16.39230       -1.06340
H         16.47090      -16.43410       -2.00540
C         16.08420      -16.34200        0.07900
