18
Properties=species:S:1:pos:R:3:forces:R:3 energy=-6416.019912811635 stress="0.0 0.0 0.0 0.0 0.0 0.0 0.0 0.0 0.0" pbc="F F F"
C          4.23580       -0.43530        0.51520
H          5.31660       -0.27020        0.57190
H          3.73870        0.50170        0.78910
C          3.84580       -0.87940       -0.89820
H          4.20310       -0.12700       -1.61290
H          4.38910       -1.80160       -1.15430
C          2.36450       -1.10290       -1.14520
C          1.88170       -0.68070       -2.51280
H          2.40480       -1.23890       -3.30080
H          0.81020       -0.83360       -2.65430
H          2.09120        0.38320       -2.67960
C          1.58850       -1.68760       -0.22960
H          2.04200       -1.98540        0.71500
C          0.12840       -2.00970       -0.33370
H         -0.03820       -3.08920       -0.22910
H         -0.43080       -1.52840        0.47830
H          3.98370       -1.18590        1.27150
H         -0.31600       -1.69300       -1.27920
