13
Properties=species:S:1:pos:R:3:forces:R:3 energy=-18603.357834063067 stress="0.0 0.0 0.0 0.0 0.0 0.0 0.0 0.0 0.0" pbc="F F F"
C         -1.14830       -1.39680       -0.60170
H         -0.96220       -0.77360        0.27430
H         -0.43270       -1.18170       -1.39810
H         -2.16920       -1.25070       -0.95790
S         -0.99850       -3.10900       -0.15060
O         -1.83750       -3.33100        1.01800
N          0.61160       -3.23790        0.25610
H          0.96460       -4.08870       -0.16650
O         -1.15960       -3.91260       -1.35060
C          1.01020       -2.99780        1.64010
H          0.93180       -1.93190        1.87200
H          0.40570       -3.56340        2.35810
H          2.05780       -3.29070        1.73510
