19
Properties=species:S:1:pos:R:3:forces:R:3 energy=-12439.870413941582 stress="0.0 0.0 0.0 0.0 0.0 0.0 0.0 0.0 0.0" pbc="F F F"
C          5.59760      -15.07170        0.00770
H          6.12260      -14.11830       -0.01230
C          4.20790      -15.08830        0.00070
H          3.65830      -14.15040       -0.00630
C          3.52330      -16.30120        0.00500
H          2.43670      -16.31420        0.00300
C          4.23540      -17.49800        0.00360
H          3.70550      -18.44690       -0.00300
C          5.62420      -17.48340        0.00430
H          6.19440      -18.40850       -0.01850
C          6.31660      -16.27020        0.02650
N          8.54800      -17.23590       -0.47290
C          9.83910      -16.82980       -0.25150
H         10.68020      -17.43190       -0.56890
C          9.86390      -15.62850        0.39830
H         10.67220      -15.00220        0.74520
N          8.54290      -15.28540        0.56480
H          8.19390      -14.49650        1.08560
C          7.78750      -16.28160        0.01700
