18
Properties=species:S:1:pos:R:3:forces:R:3 energy=-6416.050793911058 stress="0.0 0.0 0.0 0.0 0.0 0.0 0.0 0.0 0.0" pbc="F F F"
C          2.67990       -1.65130       -1.56360
H          2.39060       -2.47220       -0.89760
H          2.94680       -2.07800       -2.53660
C          3.83770       -0.84510       -0.97010
H          4.71040       -1.50520       -0.85770
C          3.45880       -0.29980        0.41250
H          3.16970       -1.11210        1.08930
H          2.60890        0.38900        0.33090
H          4.29170        0.24610        0.86750
C          4.22010        0.28480       -1.88780
H          3.40490        0.94630       -2.19280
C          5.46400        0.54430       -2.28200
H          6.25700       -0.13580       -1.96440
C          5.88370        1.69460       -3.14810
H          6.36110        1.33710       -4.06750
H          6.61430        2.32700       -2.63110
H          1.80140       -1.00970       -1.70500
H          5.03040        2.32070       -3.42900
