10
Properties=species:S:1:pos:R:3:forces:R:3 energy=-6263.461481917523 stress="0.0 0.0 0.0 0.0 0.0 0.0 0.0 0.0 0.0" pbc="F F F"
O          0.07280       -2.09560        1.23350
H         -0.18770       -1.50760        1.95170
C          0.33740       -3.37680        1.78070
H         -0.50160       -3.75590        2.38440
H          1.23560       -3.34160        2.41880
C          0.56880       -4.33200        0.62420
H          1.21350       -5.15440        0.95030
H          1.08140       -3.79520       -0.18620
O         -0.62900       -4.94530        0.18800
H         -1.17860       -4.24400       -0.18570
