21
Properties=species:S:1:pos:R:3:forces:R:3 energy=-15739.699141838522 stress="0.0 0.0 0.0 0.0 0.0 0.0 0.0 0.0 0.0" pbc="F F F"
C         21.85250      -32.32540        0.76170
H         22.41460      -31.67160        1.42310
C         20.46850      -32.25210        0.70290
H         19.93000      -31.52500        1.30520
C         19.78860      -33.11470       -0.14840
H         18.70710      -33.09100       -0.23850
C         20.53830      -34.02460       -0.88620
H         20.04720      -34.72330       -1.56070
N         21.86500      -34.12200       -0.82260
C         22.52010      -33.27300       -0.02420
C         26.15880      -32.19220        0.02180
H         26.71610      -31.26040        0.04270
C         24.76950      -32.16850        0.02980
H         24.25700      -31.20940        0.03970
C         24.01240      -33.34290       -0.00220
C         24.71610      -34.54860       -0.03050
C         26.10290      -34.59760       -0.02950
H         26.58840      -35.56780       -0.04950
C         26.82630      -33.41230       -0.00610
H         27.91180      -33.44460       -0.00880
F         24.05660      -35.71280       -0.03040
