20
Properties=species:S:1:pos:R:3:forces:R:3 energy=-13476.429876276237 stress="0.0 0.0 0.0 0.0 0.0 0.0 0.0 0.0 0.0" pbc="F F F"
C         12.95250      -24.06840       -0.43820
H         13.49340      -23.19120       -0.77890
C         11.56670      -24.11050       -0.40810
H         10.98350      -23.25790       -0.74630
C         10.93830      -25.25490        0.07160
H          9.85630      -25.32920        0.11960
C         11.73570      -26.31260        0.49440
H         11.28420      -27.22690        0.87600
N         13.06770      -26.29510        0.45490
C         13.66220      -25.18930       -0.00280
C         17.25380      -26.32610       -0.05530
H         17.84080      -27.23660       -0.14300
C         15.86860      -26.37800       -0.09760
H         15.33170      -27.31570       -0.20100
C         15.15400      -25.18320        0.00990
N         15.74300      -23.99390        0.16590
C         17.07420      -23.96330        0.22280
H         17.52100      -22.97910        0.35420
C         17.87630      -25.09360        0.11230
H         18.95750      -25.00650        0.15780
