19
Properties=species:S:1:pos:R:3:forces:R:3 energy=-21331.971578489523 stress="0.0 0.0 0.0 0.0 0.0 0.0 0.0 0.0 0.0" pbc="F F F"
C         21.78870       -8.53050       -0.00240
H         22.33460       -7.59030        0.01330
C         20.39830       -8.51670       -0.00730
H         19.86830       -7.56790       -0.01290
C         19.69010       -9.71450       -0.00700
H         18.60330       -9.70660       -0.01330
C         20.38070      -10.92370        0.00290
H         19.83470      -11.86330        0.00320
C         21.77050      -10.93930        0.01330
H         22.29990      -11.88850        0.00960
C         22.49240       -9.73930        0.00610
C         24.81150       -8.80150       -0.52600
H         24.45350       -7.94550       -1.08780
C         26.19110       -9.10160       -0.32170
H         27.00740       -8.48300       -0.67850
C         26.37250      -10.25720        0.37480
H         27.30510      -10.71780        0.67230
S         24.87440      -10.99700        0.78020
C         23.96960       -9.73230        0.01600
