15
Properties=species:S:1:pos:R:3:forces:R:3 energy=-9870.19054499314 stress="0.0 0.0 0.0 0.0 0.0 0.0 0.0 0.0 0.0" pbc="F F F"
O         11.63180      -31.74490        0.00050
C         12.32930      -29.46240       -0.00010
H         12.77520      -28.99360        0.88440
H         11.25370      -29.28060       -0.00000
H         12.77490      -28.99400       -0.88500
C         12.56130      -30.95870        0.00020
C         14.37970      -32.76320        0.00030
H         13.72540      -33.62600        0.00060
C         15.79420      -32.74370        0.00010
H         16.45420      -33.60070        0.00020
C         16.18590      -31.42550       -0.00030
H         17.17380      -30.98590       -0.00050
N         15.06510      -30.64950       -0.00030
H         15.06250      -29.64280       -0.00050
C         13.94500      -31.45430        0.00010
