18
Properties=species:S:1:pos:R:3:forces:R:3 energy=-10939.130222472426 stress="0.0 0.0 0.0 0.0 0.0 0.0 0.0 0.0 0.0" pbc="F F F"
C         -3.09280        1.24290       -2.36890
H         -4.13640        1.45220       -2.58320
C         -2.08700        2.14180       -2.70660
H         -2.32420        3.08330       -3.19660
C         -0.77230        1.81200       -2.40800
H          0.04790        2.47900       -2.66270
C         -0.50860        0.59380       -1.77670
N         -1.46820       -0.26980       -1.44250
C         -2.72780        0.05670       -1.74440
H         -3.48540       -0.67310       -1.46290
C          0.93220        0.19670       -1.48960
H          1.50210        1.10170       -1.21650
H          1.38060       -0.19760       -2.41030
O          1.08780       -0.80830       -0.53180
C          0.88350       -0.36780        0.79050
H          1.06630       -1.22780        1.43940
H         -0.14370       -0.01270        0.94660
H          1.58400        0.43830        1.06150
