18
Properties=species:S:1:pos:R:3:forces:R:3 energy=-8457.013780868854 stress="0.0 0.0 0.0 0.0 0.0 0.0 0.0 0.0 0.0" pbc="F F F"
C          5.52390      -23.17950       -0.05590
C          6.81550      -22.37910       -0.04660
H          6.74200      -21.59250       -0.80960
C          8.08990      -23.18300       -0.27490
H          8.05190      -23.72010       -1.22900
H          8.24470      -23.91870        0.52190
H          8.96330      -22.52360       -0.29420
H          6.89200      -21.84700        0.91240
C          4.30570      -22.49280       -0.05670
H          4.31040      -21.40350       -0.06000
C          3.09330      -23.17210       -0.05190
H          2.16010      -22.61310       -0.05160
C          3.07450      -24.56420       -0.04870
H          2.12910      -25.10060       -0.04510
C          4.27710      -25.26060       -0.05090
H          4.27920      -26.34830       -0.04980
C          5.48950      -24.57530       -0.05510
H          6.41550      -25.14510       -0.06370
