14
Properties=species:S:1:pos:R:3:forces:R:3 energy=-10306.494481866048 stress="0.0 0.0 0.0 0.0 0.0 0.0 0.0 0.0 0.0" pbc="F F F"
O          4.87730      -11.58090       -0.65510
C          5.42510      -10.32270        1.30990
H          5.92830       -9.35430        1.19570
H          4.34740      -10.16230        1.37660
H          5.80440      -10.77070        2.23510
C          5.72460      -11.21940        0.12810
N          7.53370      -12.95100        0.01440
C          8.90440      -12.89940       -0.00330
H          9.49800      -13.80450       -0.01250
C          9.34250      -11.60300       -0.00560
H         10.32990      -11.16490       -0.01860
N          8.20160      -10.83990        0.02020
H          8.15530       -9.83280       -0.01930
C          7.14160      -11.69980        0.00890
