16
Properties=species:S:1:pos:R:3:forces:R:3 energy=-9433.461436732565 stress="0.0 0.0 0.0 0.0 0.0 0.0 0.0 0.0 0.0" pbc="F F F"
C         -2.12300       -0.96790       -2.10630
H         -2.65840       -1.79600       -2.56570
C         -2.82070        0.01800       -1.42100
H         -3.90290       -0.03160       -1.33730
C         -2.11750        1.07230       -0.83980
H         -2.65200        1.84850       -0.29770
C         -0.73610        1.13930       -0.94080
H         -0.16750        1.94380       -0.48290
C         -0.04120        0.15110       -1.64270
C         -0.73490       -0.91100       -2.22140
H         -0.20340       -1.68390       -2.76850
O          1.31910        0.25210       -1.63810
C          2.01360       -0.33090       -2.72110
H          3.03310        0.05630       -2.67330
H          2.04420       -1.42570       -2.63850
H          1.56100       -0.05820       -3.68280
