18
Properties=species:S:1:pos:R:3:forces:R:3 energy=-12979.616843164216 stress="0.0 0.0 0.0 0.0 0.0 0.0 0.0 0.0 0.0" pbc="F F F"
C         12.73200       -7.67760        0.00250
H         13.29310       -6.74720        0.00970
C         11.34460       -7.67170       -0.01170
H         10.79690       -6.73320       -0.02660
C         10.67100       -8.88650       -0.00840
H          9.58630       -8.93530       -0.02160
C         11.42890      -10.05570        0.01340
H         10.94200      -11.02950        0.01720
N         12.75820      -10.07950        0.03370
C         13.39980       -8.90480        0.02420
C         15.80850       -8.01320       -0.33720
H         15.63090       -7.00930       -0.70030
C         17.07600       -8.64900       -0.15720
H         18.05700       -8.22930       -0.33370
C         16.80240       -9.90150        0.28390
H         17.41810      -10.74670        0.55420
O         15.46880      -10.09560        0.38660
C         14.86840       -8.93630        0.01650
