11
Properties=species:S:1:pos:R:3:forces:R:3 energy=-5940.564226511405 stress="0.0 0.0 0.0 0.0 0.0 0.0 0.0 0.0 0.0" pbc="F F F"
F         13.26130      -26.47160       -0.00090
C         14.40150      -25.67760       -0.00040
H         14.36920      -25.02440       -0.88160
H         14.35770      -25.04770        0.89650
C         15.64510      -26.55380        0.00080
H         16.44190      -26.02310        0.53800
H         15.42020      -27.45740        0.57820
C         16.13360      -26.89780       -1.40410
H         16.39100      -25.98850       -1.95910
H         15.35980      -27.42630       -1.97180
H         17.02290      -27.53490       -1.37210
