17
Properties=species:S:1:pos:R:3:forces:R:3 energy=-8893.121617517832 stress="0.0 0.0 0.0 0.0 0.0 0.0 0.0 0.0 0.0" pbc="F F F"
C          1.53140       -1.86270       -2.29270
H          1.71320       -2.47680       -3.17160
C          2.42840       -1.88480       -1.22820
H          3.31530       -2.51100       -1.26700
C          2.17010       -1.09600       -0.11240
H          2.85780       -1.10270        0.73030
C          1.03770       -0.29140       -0.05490
H          0.85110        0.31650        0.82630
C          0.14250       -0.25450       -1.13050
C          0.39730       -1.06400       -2.24610
H         -0.30640       -1.06790       -3.07720
N         -1.04660        0.48030       -1.06210
H         -1.51260        0.49890       -1.95950
C         -1.04060        1.78530       -0.42480
H         -0.95660        1.67950        0.66200
H         -0.22820        2.44520       -0.76620
H         -1.99790        2.27260       -0.62860
