18
Properties=species:S:1:pos:R:3:forces:R:3 energy=-8899.600133399374 stress="0.0 0.0 0.0 0.0 0.0 0.0 0.0 0.0 0.0" pbc="F F F"
C          2.86740       -3.15570       -0.75030
H          3.86180       -2.73970       -0.94520
H          2.37230       -3.32080       -1.71170
H          2.97750       -4.11730       -0.25220
C          2.08830       -2.16630        0.10730
H          2.55170       -2.10340        1.10620
H          2.18010       -1.16470       -0.33220
N          0.65000       -2.41230        0.25660
C         -0.11520       -1.20920        0.52690
H         -1.16880       -1.43110        0.68860
H         -0.03470       -0.50560       -0.31220
H          0.26250       -0.70140        1.42410
C          0.10830       -3.67190        0.21980
C         -1.40900       -3.76170        0.21710
H         -1.85820       -3.14100       -0.56380
H         -1.82480       -3.45650        1.18360
H         -1.67020       -4.80580        0.04300
O          0.78150       -4.69240        0.20150
