12
Properties=species:S:1:pos:R:3:forces:R:3 energy=-6760.295763979053 stress="0.0 0.0 0.0 0.0 0.0 0.0 0.0 0.0 0.0" pbc="F F F"
C         -0.75350       -2.61750        1.41470
H         -0.81790       -1.83710        2.17930
H         -0.89200       -2.15710        0.42430
H         -1.57510       -3.32270        1.58600
N          0.52090       -3.32190        1.57100
H          1.26460       -2.65230        1.39100
C          0.73590       -4.33690        0.59250
C          0.23150       -5.71150        0.95660
H         -0.72810       -5.65520        1.48160
H          0.14050       -6.31450        0.05120
H          0.94920       -6.18650        1.63390
O          1.40170       -4.12090       -0.39570
