17
Properties=species:S:1:pos:R:3:forces:R:3 energy=-8893.151668770011 stress="0.0 0.0 0.0 0.0 0.0 0.0 0.0 0.0 0.0" pbc="F F F"
C          1.52880       -1.85950       -2.29300
H          1.71000       -2.47160       -3.17340
C          2.42900       -1.88160       -1.23070
H          3.31680       -2.50630       -1.27270
C          2.17290       -1.09320       -0.11450
H          2.86390       -1.09790        0.72570
C          1.03890       -0.29050       -0.05170
H          0.86020        0.32080        0.82850
C          0.13750       -0.25830       -1.12340
C          0.39430       -1.06280       -2.24330
H         -0.31090       -1.06360       -3.07300
N         -1.04630        0.47620       -1.06410
H         -1.47150        0.57990       -1.97500
C         -1.11280        1.68230       -0.26270
H         -0.27330        2.37400       -0.43330
H         -2.04600        2.20170       -0.49500
H         -1.13360        1.43140        0.80340
