18
Properties=species:S:1:pos:R:3:forces:R:3 energy=-8457.013293394879 stress="0.0 0.0 0.0 0.0 0.0 0.0 0.0 0.0 0.0" pbc="F F F"
C          5.52210      -23.17720       -0.05890
C          6.81670      -22.38260       -0.04060
H          6.67980      -21.48460       -0.65680
C          8.05450      -23.13500       -0.51810
H          7.90280      -23.54380       -1.52300
H          8.30230      -23.96590        0.15100
H          8.92170      -22.46800       -0.55220
H          6.99090      -22.01290        0.98020
C          5.48920      -24.57340       -0.06220
H          6.41680      -25.14090       -0.07840
C          4.27790      -25.25980       -0.05530
H          4.28010      -26.34750       -0.05790
C          3.07440      -24.56430       -0.04680
H          2.12960      -25.10190       -0.04150
C          3.09150      -23.17250       -0.04620
H          2.15750      -22.61480       -0.04100
C          4.30370      -22.49200       -0.05340
H          4.30790      -21.40270       -0.05220
