21
Properties=species:S:1:pos:R:3:forces:R:3 energy=-13945.716156772763 stress="0.0 0.0 0.0 0.0 0.0 0.0 0.0 0.0 0.0" pbc="F F F"
C         29.16660      -17.06360       -1.51290
H         29.66410      -17.67180       -2.26320
C         27.79030      -17.09240       -1.34400
H         27.17130      -17.71640       -1.98360
C         27.21880      -16.32130       -0.33860
H         26.14710      -16.31750       -0.16600
C         28.06210      -15.54990        0.45320
H         27.65450      -14.93570        1.25280
N         29.38310      -15.49680        0.29460
C         29.92690      -16.23930       -0.68020
N         32.08300      -17.27790       -1.27680
C         33.39610      -16.92110       -1.16420
H         34.19490      -17.58390       -1.47170
C         33.50400      -15.66630       -0.63130
H         34.35290      -15.04190       -0.39240
N         32.22170      -15.23620       -0.40750
C         31.39890      -16.24970       -0.81390
C         31.86260      -13.93960        0.14510
H         32.75290      -13.30680        0.13120
H         31.08450      -13.48420       -0.46960
H         31.48390      -14.03510        1.16470
