14
Properties=species:S:1:pos:R:3:forces:R:3 energy=-9710.154068266289 stress="0.0 0.0 0.0 0.0 0.0 0.0 0.0 0.0 0.0" pbc="F F F"
C         -0.12670       -0.09530       -0.08050
H         -0.20860        0.42830       -1.03840
H         -0.22540        0.65590        0.71010
C          1.22830       -0.79140        0.04310
H          1.31690       -1.55890       -0.73800
H          1.27530       -1.32160        1.00400
C          2.39480        0.18580       -0.06100
H          2.38390        0.70820       -1.02450
H          3.35770       -0.32680        0.03070
H          2.34290        0.94460        0.72830
C         -1.31990       -1.03390        0.04280
H         -1.05100       -2.04540        0.37050
F         -1.96790       -1.15050       -1.15260
F         -2.21790       -0.54570        0.94830
