22
Properties=species:S:1:pos:R:3:forces:R:3 energy=-15303.291907340421 stress="0.0 0.0 0.0 0.0 0.0 0.0 0.0 0.0 0.0" pbc="F F F"
C         12.82610      -32.15230        0.41320
H         13.37230      -31.26460        0.71300
C         11.43970      -32.08480        0.44430
H         10.95740      -31.16320        0.76150
C         10.67540      -33.18440        0.07340
H          9.59050      -33.13730        0.09570
C         11.32360      -34.34610       -0.32680
H         10.74360      -35.21730       -0.62070
C         12.71130      -34.41630       -0.35870
H         13.17840      -35.33730       -0.67570
C         13.50020      -33.31590        0.01220
C         17.14520      -32.21790        0.36590
H         17.66970      -31.31640        0.67050
C         15.75750      -32.23240        0.36900
H         15.25770      -31.32360        0.68200
C         15.00380      -33.35590       -0.01010
C         15.77080      -34.46560       -0.39320
C         17.15620      -34.48080       -0.40640
H         17.66060      -35.39030       -0.71970
C         17.85580      -33.34670       -0.02340
H         18.94120      -33.34550       -0.02920
F         15.18530      -35.62230       -0.78460
