22
Properties=species:S:1:pos:R:3:forces:R:3 energy=-13509.24660124962 stress="0.0 0.0 0.0 0.0 0.0 0.0 0.0 0.0 0.0" pbc="F F F"
C         21.46110      -15.41120        0.89500
H         21.90860      -14.59070        1.44590
C         20.08470      -15.42050        0.70320
H         19.48040      -14.62960        1.13840
C         19.48530      -16.43450       -0.03830
H         18.40860      -16.44370       -0.18320
C         20.27700      -17.42940       -0.60460
H         19.82120      -18.21750       -1.19830
C         21.65330      -17.41560       -0.42080
H         22.28290      -18.17560       -0.87600
C         22.26000      -16.42550        0.35730
N         24.50740      -17.11650       -0.34910
C         25.78560      -16.90480        0.08560
H         26.64060      -17.31460       -0.43780
C         25.78050      -16.14880        1.22210
H         26.56990      -15.78150        1.86150
N         24.46000      -15.87950        1.49430
C         23.72800      -16.46750        0.49490
C         24.00720      -15.21220        2.70150
H         24.78550      -15.30780        3.46180
H         23.82090      -14.14580        2.53330
H         23.09880      -15.68890        3.07780
