19
Properties=species:S:1:pos:R:3:forces:R:3 energy=-12439.888005118522 stress="0.0 0.0 0.0 0.0 0.0 0.0 0.0 0.0 0.0" pbc="F F F"
C          5.58880      -15.06310       -0.02030
H          6.09490      -14.09940       -0.02340
C          4.19940      -15.09110       -0.01610
H          3.64340      -14.15700       -0.03070
C          3.52330      -16.30860        0.00560
H          2.43690      -16.32970        0.00740
C          4.24500      -17.49920        0.02840
H          3.72340      -18.45250        0.04950
C          5.63280      -17.47340        0.02620
H          6.21320      -18.39190        0.05090
C          6.31800      -16.25510       -0.00540
N          8.52790      -17.34750        0.18680
C          9.82700      -16.92200        0.09940
H         10.65570      -17.60630        0.22720
C          9.87960      -15.58200       -0.16100
H         10.70270      -14.89730       -0.30000
N          8.56750      -15.17790       -0.22710
H          8.24590      -14.25320       -0.46260
C          7.78740      -16.27760       -0.01090
