18
Properties=species:S:1:pos:R:3:forces:R:3 energy=-8457.013321731049 stress="0.0 0.0 0.0 0.0 0.0 0.0 0.0 0.0 0.0" pbc="F F F"
C          5.52230      -23.17850       -0.04150
C          6.81690      -22.38390       -0.05870
H          6.98050      -21.99600       -1.07460
C          8.05920      -23.14450        0.39270
H          8.29860      -23.96460       -0.29280
H          7.91830      -23.56960        1.39230
H          8.92730      -22.47880        0.42800
H          6.68650      -21.49670        0.57450
C          4.30430      -22.49250       -0.04230
H          4.30910      -21.40330       -0.03940
C          3.09170      -23.17230       -0.05020
H          2.15800      -22.61400       -0.05160
C          3.07370      -24.56410       -0.05500
H          2.12870      -25.10110       -0.06090
C          4.27690      -25.26030       -0.05130
H          4.27850      -26.34800       -0.05310
C          5.48860      -24.57460       -0.04380
H          6.41590      -25.14270       -0.03120
