18
Properties=species:S:1:pos:R:3:forces:R:3 energy=-12413.511460162284 stress="0.0 0.0 0.0 0.0 0.0 0.0 0.0 0.0 0.0" pbc="F F F"
C          7.42500      -26.92450        0.01800
H          6.50020      -26.35770        0.01350
C          7.43680      -28.31240       -0.12800
H          6.50830      -28.86420       -0.25140
C          8.64360      -28.98350       -0.11850
H          8.69040      -30.06400       -0.23390
C          9.82660      -28.24160        0.04950
N          9.82710      -26.92010        0.18860
C          8.64590      -26.29020        0.16840
H          8.69340      -25.20990        0.28570
N         11.03740      -28.93710        0.02420
H         10.96880      -29.92490       -0.18610
C         12.32290      -28.61900        0.46040
C         12.62800      -27.20980        0.88750
H         12.40390      -26.50070        0.08750
H         13.68430      -27.17080        1.15360
H         12.01030      -26.91860        1.74060
O         13.15690      -29.50430        0.46370
