14
Properties=species:S:1:pos:R:3:forces:R:3 energy=-8266.753132366173 stress="0.0 0.0 0.0 0.0 0.0 0.0 0.0 0.0 0.0" pbc="F F F"
C          1.25770       -1.85640        0.73150
H          2.03760       -1.24260        0.27340
H          0.27600       -1.43150        0.47880
H          1.38180       -1.79270        1.81630
N          1.42700       -3.23810        0.28580
H          1.38210       -3.29810       -0.72490
C          0.55920       -4.22160        0.78450
N          0.60350       -4.35640        2.15030
H          1.43170       -3.98550        2.59280
C          0.00740       -5.53020        2.75920
H          0.63920       -6.42370        2.67070
H         -0.18430       -5.32860        3.81570
H         -0.93870       -5.73460        2.25720
O         -0.11610       -4.93230        0.05910
