14
Properties=species:S:1:pos:R:3:forces:R:3 energy=-9710.234154114229 stress="0.0 0.0 0.0 0.0 0.0 0.0 0.0 0.0 0.0" pbc="F F F"
C         -0.13020       -0.09300       -0.08340
H         -0.21730        0.44380       -1.03420
H         -0.23020        0.64600        0.72010
C          1.22340       -0.79170        0.04210
H          1.31130       -1.55970       -0.73730
H          1.26820       -1.31820        1.00480
C          2.39160        0.18390       -0.06110
H          2.38170        0.70560       -1.02510
H          3.35360       -0.33040        0.03060
H          2.34260        0.94380        0.72760
C         -1.31180       -1.03230        0.03950
H         -1.11050       -1.89610        0.68580
F         -1.67500       -1.51050       -1.18550
F         -2.38420       -0.37730        0.57210
