16
Properties=species:S:1:pos:R:3:forces:R:3 energy=-9433.39723922332 stress="0.0 0.0 0.0 0.0 0.0 0.0 0.0 0.0 0.0" pbc="F F F"
C         -2.12480        1.07170       -0.83670
H         -2.66030        1.84940       -0.29780
C         -2.82470        0.01550       -1.41610
H         -3.90690       -0.03640       -1.33210
C         -2.12610       -0.97060       -2.10370
H         -2.66120       -1.79820       -2.56350
C         -0.73990       -0.90750       -2.22020
H         -0.19610       -1.68160       -2.75500
C         -0.04720        0.14620       -1.62680
C         -0.74150        1.14040       -0.93840
H         -0.17450        1.95080       -0.48890
O          1.31980        0.24060       -1.65700
C          1.93010        0.12730       -2.92860
H          2.97530        0.41140       -2.78980
H          1.46210        0.79910       -3.65930
H          1.89370       -0.90050       -3.31400
