18
Properties=species:S:1:pos:R:3:forces:R:3 energy=-6416.021291772536 stress="0.0 0.0 0.0 0.0 0.0 0.0 0.0 0.0 0.0" pbc="F F F"
C          4.00000        0.34700        0.17760
H          5.06600        0.51380        0.36430
H          3.57020        1.28230       -0.19720
C          3.79850       -0.79560       -0.82970
H          4.33790       -0.56030       -1.75500
H          4.26280       -1.70720       -0.42630
C          2.34190       -1.08090       -1.15320
C          1.86970       -0.67510       -2.52780
H          1.96500        0.41050       -2.66520
H          2.48230       -1.15040       -3.30420
H          0.82760       -0.94260       -2.71470
C          1.56530       -1.63200       -0.21680
H          2.02300       -1.83060        0.75570
C          0.12130       -2.01890       -0.32630
H         -0.00840       -3.08720       -0.11340
H         -0.48430       -1.47680        0.41090
H          3.52450        0.12570        1.13950
H         -0.29890       -1.82260       -1.31510
