18
Properties=species:S:1:pos:R:3:forces:R:3 energy=-21768.38237608032 stress="0.0 0.0 0.0 0.0 0.0 0.0 0.0 0.0 0.0" pbc="F F F"
C         30.17960       -8.35130       -0.00010
H         30.73020       -7.41590        0.00460
C         28.79120       -8.35390       -0.01670
H         28.24120       -7.41660       -0.03510
C         28.11970       -9.57010       -0.01030
H         27.03500       -9.61900       -0.02420
C         28.87850      -10.73660        0.01730
H         28.39560      -11.71190        0.02590
N         30.20700      -10.75150        0.03700
C         30.85360       -9.57470        0.02130
C         33.23890       -8.64540       -0.16530
H         32.96870       -7.61490       -0.36870
C         34.58500       -9.11110       -0.08660
H         35.45790       -8.47850       -0.20790
C         34.65460      -10.45150        0.15900
H         35.54300      -11.06030        0.26670
S         33.09990      -11.16710        0.28980
C         32.32400       -9.64560        0.03050
