18
Properties=species:S:1:pos:R:3:forces:R:3 energy=-8899.749783909318 stress="0.0 0.0 0.0 0.0 0.0 0.0 0.0 0.0 0.0" pbc="F F F"
C          2.62400       -2.86500       -1.25430
H          3.70670       -2.71310       -1.32090
H          2.41550       -3.93230       -1.34370
H          2.15320       -2.34280       -2.09530
C          2.11610       -2.32960        0.08370
H          2.39480       -1.27850        0.21250
H          2.58510       -2.89780        0.89520
N          0.66640       -2.41490        0.27130
C         -0.12850       -1.21570        0.08810
H         -1.03010       -1.25850        0.70380
H          0.45220       -0.35060        0.41760
H         -0.43040       -1.04960       -0.95720
C          0.10240       -3.66360        0.22550
C         -1.41110       -3.73310        0.14900
H         -1.86700       -3.34270        1.06600
H         -1.80720       -3.16060       -0.69520
H         -1.68960       -4.78080        0.03910
O          0.78230       -4.67890        0.28210
