21
Properties=species:S:1:pos:R:3:forces:R:3 energy=-15739.683229091757 stress="0.0 0.0 0.0 0.0 0.0 0.0 0.0 0.0 0.0" pbc="F F F"
C         21.78480      -33.73090       -1.06130
H         22.30050      -34.11850       -1.93560
C         20.39870      -33.69400       -0.99360
H         19.79490      -34.04060       -1.82740
C         19.80360      -33.21550        0.16690
H         18.72380      -33.17060        0.27540
C         20.62980      -32.79270        1.20240
H         20.20380      -32.41530        2.12920
N         21.96290      -32.80730        1.14760
C         22.52810      -33.26480        0.02530
C         26.17380      -32.19320       -0.00380
H         26.74900      -31.27170       -0.00200
C         24.78320      -32.14240        0.01080
H         24.27180      -31.18340        0.04020
C         24.02020      -33.30990       -0.01220
C         24.70230      -34.52510        0.00480
C         26.08610      -34.60360        0.00170
H         26.55920      -35.57980        0.00270
C         26.82290      -33.42450       -0.00870
H         27.90830      -33.47010       -0.01570
F         23.99650      -35.66870        0.00320
