15
Properties=species:S:1:pos:R:3:forces:R:3 energy=-7830.432014191329 stress="0.0 0.0 0.0 0.0 0.0 0.0 0.0 0.0 0.0" pbc="F F F"
C          2.67390       -2.78610       -1.18500
H          3.72930       -2.50290       -1.25620
H          2.15800       -2.42030       -2.07960
H          2.59780       -3.87400       -1.16200
C          2.06130       -2.17990        0.07630
H          2.17410       -1.09200        0.07260
H          2.60100       -2.55460        0.95580
N          0.63820       -2.45020        0.25170
H          0.01080       -1.66330        0.28870
C          0.08710       -3.69230        0.16190
C         -1.43030       -3.72800        0.21720
H         -1.88720       -2.76770        0.47560
H         -1.72750       -4.47840        0.95360
H         -1.81270       -4.05300       -0.75540
O          0.74640       -4.71640        0.06850
