13
Properties=species:S:1:pos:R:3:forces:R:3 energy=-18603.347278973913 stress="0.0 0.0 0.0 0.0 0.0 0.0 0.0 0.0 0.0" pbc="F F F"
C         -1.11070       -1.39830       -0.63130
H         -0.49190       -1.22040       -1.51300
H         -2.15980       -1.20340       -0.86020
H         -0.78150       -0.78540        0.20970
S         -0.99000       -3.11260       -0.16760
O         -1.17830       -3.90540       -1.37340
N          0.61440       -3.25440        0.28400
H          1.11640       -3.68450       -0.48630
O         -1.82380       -3.31090        1.00700
C          0.89150       -3.88630        1.57910
H          0.35940       -3.33370        2.35470
H          0.59470       -4.94190        1.62700
H          1.96580       -3.80250        1.75670
