19
Properties=species:S:1:pos:R:3:forces:R:3 energy=-11977.004977287259 stress="0.0 0.0 0.0 0.0 0.0 0.0 0.0 0.0 0.0" pbc="F F F"
C         -0.14540        0.14440       -1.57880
N         -1.48740        0.14950       -1.13490
H         -1.61240        0.30060       -0.14520
C          0.82930        0.72900       -0.76620
H          0.53910        1.21440        0.16360
C          2.16500        0.70150       -1.14760
H          2.91310        1.16910       -0.51230
C          2.54360        0.07210       -2.32980
H          3.58810        0.04500       -2.62820
C          1.57080       -0.52600       -3.12540
H          1.85540       -1.02180       -4.05070
C          0.22910       -0.49520       -2.76110
H         -0.52970       -0.94830       -3.38850
C         -2.60020        0.30080       -1.93260
C         -3.89300        0.45640       -1.15270
H         -4.71910        0.51000       -1.86110
H         -4.04710       -0.39270       -0.47850
H         -3.88070        1.37020       -0.54790
O         -2.55140        0.29640       -3.14720
