15
Properties=species:S:1:pos:R:3:forces:R:3 energy=-12353.420488376034 stress="0.0 0.0 0.0 0.0 0.0 0.0 0.0 0.0 0.0" pbc="F F F"
C         11.30140      -17.28840       -0.55390
N         12.54880      -17.03050        0.01630
H         12.67970      -16.05770        0.26430
N         13.80500      -19.09180       -0.13780
C         15.18060      -19.29620       -0.06570
H         15.61340      -20.28410       -0.12300
C         15.81010      -18.11780        0.07600
H         16.83600      -17.80220        0.17090
O         14.84290      -17.13380        0.10090
C         13.68710      -17.80790       -0.04200
O         10.48700      -16.39170       -0.60600
C         11.05010      -18.68500       -1.05340
H         11.73150      -18.92510       -1.87390
H         10.01670      -18.73830       -1.39650
H         11.24050      -19.42480       -0.27260
