19
Properties=species:S:1:pos:R:3:forces:R:3 energy=-11976.924871199311 stress="0.0 0.0 0.0 0.0 0.0 0.0 0.0 0.0 0.0" pbc="F F F"
C         -0.11820        0.10850       -1.54860
N         -1.49020        0.15060       -1.15730
H         -1.95250       -0.70800       -0.88720
C          0.23640       -0.34840       -2.81790
H         -0.54670       -0.66580       -3.50330
C          1.57480       -0.37880       -3.19830
H          1.84360       -0.73510       -4.19000
C          2.56450        0.04470       -2.31590
H          3.60970        0.01970       -2.61420
C          2.20940        0.50000       -1.04980
H          2.97590        0.83340       -0.35440
C          0.87190        0.53470       -0.66540
H          0.58220        0.89240        0.32050
C         -2.35950        1.20200       -1.33570
C         -1.76720        2.49120       -1.86160
H         -2.57210        3.22100       -1.95120
H         -0.99600        2.87540       -1.18540
H         -1.29590        2.33750       -2.83800
O         -3.54040        1.07780       -1.06560
