14
Properties=species:S:1:pos:R:3:forces:R:3 energy=-9710.236058439425 stress="0.0 0.0 0.0 0.0 0.0 0.0 0.0 0.0 0.0" pbc="F F F"
C         -0.12720       -0.08650       -0.06550
H         -0.18310        0.42040       -1.03830
H         -0.24610        0.68530        0.70340
C          1.22510       -0.78990        0.05320
H          1.29560       -1.55690       -0.72460
H          1.27360       -1.31470        1.01540
C          2.38990        0.18740       -0.06650
H          2.37290        0.70310       -1.03390
H          3.35300       -0.32520        0.02230
H          2.34340        0.95090        0.71890
C         -1.31520       -1.02420        0.05060
H         -2.20910       -0.67740       -0.47980
F         -1.64890       -1.17850        1.36900
F         -1.00390       -2.27030       -0.41180
