18
Properties=species:S:1:pos:R:3:forces:R:3 energy=-10939.237843002558 stress="0.0 0.0 0.0 0.0 0.0 0.0 0.0 0.0 0.0" pbc="F F F"
C         -3.07160        1.23300       -2.32700
H         -4.12050        1.43660       -2.52260
C         -2.07740        2.13180       -2.69620
H         -2.33130        3.06570       -3.19310
C         -0.75120        1.82000       -2.42200
H          0.06040        2.48770       -2.69240
C         -0.47570        0.61240       -1.78440
N         -1.42170       -0.25880       -1.42290
C         -2.68820        0.05510       -1.69450
H         -3.43710       -0.67580       -1.38870
C          0.93340        0.19630       -1.43710
H          1.07830       -0.84600       -1.76110
H          1.05600        0.21060       -0.34050
O          1.86070        1.05360       -2.05150
C          3.18640        0.68530       -1.76380
H          3.84220        1.39070       -2.27910
H          3.40610       -0.33350       -2.11910
H          3.39060        0.73090       -0.68260
