21
Properties=species:S:1:pos:R:3:forces:R:3 energy=-15739.595734398003 stress="0.0 0.0 0.0 0.0 0.0 0.0 0.0 0.0 0.0" pbc="F F F"
C         21.82400      -33.28390        1.16620
H         22.37020      -33.29760        2.10510
C         20.43540      -33.27340        1.13500
H         19.85960      -33.28080        2.05620
C         19.80390      -33.25320       -0.10190
H         18.72100      -33.24430       -0.18750
C         20.59630      -33.24430       -1.24510
H         20.13810      -33.22870       -2.23150
N         21.93050      -33.25450       -1.23160
C         22.52930      -33.27250       -0.03780
C         26.17730      -32.19270        0.01230
H         26.75730      -31.27440        0.02320
C         24.78600      -32.13430       -0.01280
H         24.28240      -31.17120       -0.02890
C         24.02190      -33.29980       -0.02240
C         24.69420      -34.51780       -0.02240
C         26.07700      -34.60400        0.00210
H         26.54270      -35.58380        0.00570
C         26.81920      -33.42750        0.02120
H         27.90440      -33.47890        0.04080
F         23.97400      -35.64980       -0.03910
