16
Properties=species:S:1:pos:R:3:forces:R:3 energy=-20705.218575274288 stress="0.0 0.0 0.0 0.0 0.0 0.0 0.0 0.0 0.0" pbc="F F F"
C         29.07980       -3.47380       -0.26500
N         29.41270       -4.78690        0.00070
H         28.67500       -5.47420        0.05330
C         31.07550       -6.59270       -0.11420
H         30.34990       -7.38980       -0.24260
C         32.48650       -6.78390       -0.05610
H         32.96880       -7.75300       -0.12870
C         33.16620       -5.61610        0.10300
H         34.23730       -5.47980        0.17790
S         32.11710       -4.24510        0.17200
C         30.72640       -5.27680        0.01350
O         29.92900       -2.61690       -0.40380
C         27.59160       -3.21440       -0.34590
H         27.09400       -3.49730        0.58750
H         27.43310       -2.15160       -0.52750
H         27.13630       -3.78750       -1.16060
