14
Properties=species:S:1:pos:R:3:forces:R:3 energy=-4310.500860430787 stress="0.0 0.0 0.0 0.0 0.0 0.0 0.0 0.0 0.0" pbc="F F F"
C          0.10330       -3.10950        2.21060
H         -0.58530       -3.80090        1.71060
H          0.88600       -3.70650        2.69030
C          0.69300       -2.10230        1.22500
H          1.30280       -2.61420        0.47010
C         -0.37040       -1.23110        0.54210
H         -0.76830       -1.74510       -0.34180
H         -1.21950       -1.11290        1.22970
C          0.14000        0.15950        0.16890
H          0.98370        0.10090       -0.52910
H         -0.64350        0.76070       -0.30400
H          0.48470        0.69780        1.05950
H          1.38210       -1.44600        1.77470
H         -0.45860       -2.59630        2.99970
