14
Properties=species:S:1:pos:R:3:forces:R:3 energy=-9710.276836407422 stress="0.0 0.0 0.0 0.0 0.0 0.0 0.0 0.0 0.0" pbc="F F F"
C         -0.12930       -0.08550       -0.07460
H         -0.21980        0.44320       -1.03050
H         -0.22310        0.66600        0.72050
C          1.22190       -0.78950        0.04890
H          1.29450       -1.55940       -0.72900
H          1.26200       -1.31210        1.01030
C          2.38940        0.18510       -0.06750
H          2.37390        0.70190       -1.03420
H          3.35130       -0.33000        0.02060
H          2.34490        0.94790        0.71870
C         -1.30900       -1.02820        0.03210
H         -2.24580       -0.51800        0.28580
F         -1.08960       -1.98310        0.98080
F         -1.50790       -1.66310       -1.16210
