17
Properties=species:S:1:pos:R:3:forces:R:3 energy=-13416.229760243936 stress="0.0 0.0 0.0 0.0 0.0 0.0 0.0 0.0 0.0" pbc="F F F"
C         12.59600      -20.49240        0.00120
H         13.16370      -19.56770        0.01700
C         11.20660      -20.48780       -0.00450
H         10.65770      -19.54960       -0.00460
C         10.53450      -21.70380       -0.00280
H          9.44930      -21.75030       -0.00320
C         11.28680      -22.87520        0.00360
H         10.79830      -23.84830        0.00990
N         12.61790      -22.89810       -0.00050
C         13.25410      -21.72360       -0.01260
N         15.52290      -22.58060       -0.63100
C         16.79330      -22.12460       -0.32290
H         17.67790      -22.61470       -0.70470
C         16.69690      -21.04240        0.47990
H         17.39760      -20.37630        0.95870
O         15.37370      -20.79370        0.68360
C         14.73210      -21.77370       -0.00130
