17
Properties=species:S:1:pos:R:3:forces:R:3 energy=-11375.904467101387 stress="0.0 0.0 0.0 0.0 0.0 0.0 0.0 0.0 0.0" pbc="F F F"
O         19.11280      -11.38410        0.91530
C         19.39800      -10.53180       -1.30510
H         20.04910       -9.69590       -1.58380
H         18.37180      -10.18070       -1.18400
H         19.45060      -11.25960       -2.12390
C         19.85480      -11.18670       -0.01930
N         21.65280      -12.90930        0.03860
C         23.02240      -12.88040        0.00010
H         23.60510      -13.79210       -0.00300
C         23.47360      -11.59000       -0.02800
H         24.46590      -11.16200       -0.05450
N         22.35180      -10.79770       -0.00750
C         21.28470      -11.65010        0.03080
C         22.34490       -9.34760        0.01890
H         23.12560       -8.99460        0.69750
H         21.38070       -8.99510        0.39090
H         22.52660       -8.92620       -0.97680
