21
Properties=species:S:1:pos:R:3:forces:R:3 energy=-13945.422240533777 stress="0.0 0.0 0.0 0.0 0.0 0.0 0.0 0.0 0.0" pbc="F F F"
C         29.20090      -16.98290       -1.48570
H         29.70900      -17.54460       -2.26550
C         27.81770      -16.98850       -1.37090
H         27.20700      -17.55650       -2.06750
C         27.23500      -16.25050       -0.34890
H         26.15750      -16.21840       -0.21530
C         28.06930      -15.54500        0.51170
H         27.65100      -14.95520        1.32510
N         29.39830      -15.53250        0.41890
C         29.95130      -16.24590       -0.56670
N         32.29520      -16.90710        0.03100
C         33.52530      -16.58960       -0.49100
H         34.43400      -17.02000       -0.09180
C         33.39470      -15.69880       -1.51950
H         34.10960      -15.21460       -2.17030
N         32.04690      -15.45940       -1.63820
C         31.43550      -16.21630       -0.68090
C         31.39460      -14.55160       -2.56400
H         32.15800      -13.97300       -3.08860
H         30.74300      -13.86810       -2.01280
H         30.79380      -15.10280       -3.29340
