23
Properties=species:S:1:pos:R:3:forces:R:3 energy=-24888.677474502572 stress="0.0 0.0 0.0 0.0 0.0 0.0 0.0 0.0 0.0" pbc="F F F"
C          4.07640       -1.87170       -0.28240
H          5.00070       -1.43100        0.08060
C          2.89120       -1.14790       -0.21460
H          2.86500       -0.14760        0.20910
C          1.71120       -1.72860       -0.66910
S          0.25570       -0.70580       -0.65180
N         -0.97620       -1.84820       -0.69910
C         -1.21610       -2.49410        0.58960
H         -0.33220       -3.06170        0.89460
H         -1.46730       -1.77060        1.37480
H         -2.04110       -3.20100        0.46230
C         -2.19510       -1.37300       -1.35620
H         -1.92860       -0.93720       -2.31960
H         -2.83940       -2.24020       -1.52550
H         -2.73810       -0.62700       -0.75830
C          1.70220       -3.00660       -1.22170
H          0.77690       -3.43340       -1.60080
C          2.89410       -3.72250       -1.28480
H          2.89860       -4.72440       -1.70450
C          4.07790       -3.15890       -0.81460
H          5.00540       -3.72370       -0.86670
O          0.22970        0.00070        0.62380
O          0.19480        0.04820       -1.89780
