17
Properties=species:S:1:pos:R:3:forces:R:3 energy=-22204.731119624783 stress="0.0 0.0 0.0 0.0 0.0 0.0 0.0 0.0 0.0" pbc="F F F"
C         30.11860      -21.09360        0.01340
H         30.68690      -20.16860        0.02640
C         28.73040      -21.08830        0.00660
H         28.18250      -20.15040        0.00820
C         28.05830      -22.30470       -0.00260
H         26.97320      -22.35250       -0.00950
C         28.81140      -23.47420       -0.00110
H         28.32390      -24.44750       -0.00620
N         30.14450      -23.49870        0.00910
C         30.77920      -22.32440        0.01200
N         32.98470      -22.95390        0.91550
C         34.32200      -22.81370        0.63630
H         35.04230      -23.24120        1.32190
C         34.62460      -22.13930       -0.50710
H         35.59850      -21.91510       -0.92000
S         33.17730      -21.63950       -1.28350
C         32.26780      -22.38280       -0.00220
