18
Properties=species:S:1:pos:R:3:forces:R:3 energy=-12979.864317307827 stress="0.0 0.0 0.0 0.0 0.0 0.0 0.0 0.0 0.0" pbc="F F F"
C          4.49200      -20.74780        0.00880
H          5.05030      -19.81480        0.01150
C          3.10100      -20.73580       -0.00440
H          2.56740      -19.78850       -0.01180
C          2.39440      -21.93470       -0.00830
H          1.30700      -21.92430       -0.01880
C          3.07800      -23.14670        0.00110
H          2.52650      -24.08360       -0.00210
C          4.46900      -23.16120        0.01450
H          5.00910      -24.10490        0.02230
C          5.18030      -21.96120        0.01990
N          7.47980      -21.98960        1.01350
C          8.73730      -21.99330        0.42830
H          9.63880      -22.00550        1.02530
C          8.60420      -21.97970       -0.91440
H          9.28090      -21.97690       -1.75560
O          7.27060      -21.96690       -1.19940
C          6.66090      -21.97470        0.01280
