18
Properties=species:S:1:pos:R:3:forces:R:3 energy=-21768.274790683714 stress="0.0 0.0 0.0 0.0 0.0 0.0 0.0 0.0 0.0" pbc="F F F"
C         30.17710       -8.35510        0.01660
H         30.74060       -7.42660        0.02940
C         28.78880       -8.35400        0.01160
H         28.23980       -7.41670        0.01590
C         28.11870       -9.57210       -0.00290
H         27.03390       -9.62320       -0.01130
C         28.87690      -10.73700       -0.00320
H         28.39330      -11.71200       -0.01110
N         30.20990      -10.75630        0.01170
C         30.84860       -9.58140        0.01340
C         33.12430      -10.38900        0.81250
H         32.71040      -11.09000        1.52980
C         34.51550      -10.15350        0.60370
H         35.30660      -10.65180        1.15350
C         34.74220       -9.22940       -0.37240
H         35.69190       -8.86340       -0.73950
S         33.27660       -8.62710       -1.04000
C         32.32930       -9.64350       -0.00860
