14
Properties=species:S:1:pos:R:3:forces:R:3 energy=-12410.747750975455 stress="0.0 0.0 0.0 0.0 0.0 0.0 0.0 0.0 0.0" pbc="F F F"
C         -0.14580        0.00220        0.18840
H          0.04370       -0.57340        1.10050
H          0.17370       -0.60880       -0.66230
C          0.60460        1.33320        0.21710
H          0.36880        1.89590       -0.69320
H          0.23930        1.93110        1.05960
C          2.11190        1.13220        0.33250
H          2.49680        0.55410       -0.51540
H          2.36630        0.58930        1.25000
H          2.64360        2.08870        0.35270
C         -1.63960        0.16450        0.07500
F         -1.98690        0.81830       -1.05200
F         -2.26120       -1.02900        0.05350
F         -2.14640        0.86240        1.11160
