22
Properties=species:S:1:pos:R:3:forces:R:3 energy=-12603.528822414108 stress="0.0 0.0 0.0 0.0 0.0 0.0 0.0 0.0 0.0" pbc="F F F"
C         13.19060      -19.59970       -0.00010
H         13.74210      -18.66300       -0.00030
C         11.79860      -19.59870       -0.00000
H         11.25990      -18.65460       -0.00010
C         11.09970      -20.80260        0.00020
H         10.01230      -20.80250        0.00020
C         11.79850      -22.00650        0.00020
H         11.25960      -22.95050        0.00040
C         13.19040      -22.00570        0.00010
H         13.74180      -22.94250        0.00020
C         13.89890      -20.80280       -0.00010
C         17.49170      -20.80300       -1.20440
H         18.03040      -20.80320       -2.14850
C         16.09980      -20.80300       -1.20330
H         15.54820      -20.80310       -2.14000
C         15.39160      -20.80280       -0.00020
C         16.10010      -20.80270        1.20260
H         15.54870      -20.80260        2.13950
C         17.49210      -20.80270        1.20340
H         18.03090      -20.80260        2.14730
C         18.19080      -20.80290       -0.00060
H         19.27820      -20.80290       -0.00070
