18
Properties=species:S:1:pos:R:3:forces:R:3 energy=-12980.115161145033 stress="0.0 0.0 0.0 0.0 0.0 0.0 0.0 0.0 0.0" pbc="F F F"
C          4.49300      -20.74250        0.00590
H          5.04970      -19.80980        0.02040
C          3.10320      -20.73420        0.00240
H          2.56820      -19.78760        0.00680
C          2.39700      -21.93540       -0.00200
H          1.31020      -21.92600       -0.00300
C          3.08190      -23.14850       -0.00340
H          2.53050      -24.08510       -0.00570
C          4.47110      -23.16190       -0.00380
H          5.02400      -24.09770       -0.01510
C          5.17990      -21.95900       -0.00710
N          7.42790      -22.97730       -0.30800
C          8.70610      -22.46620       -0.15610
H          9.58670      -23.06120       -0.35270
C          8.62560      -21.18310        0.25270
H          9.33710      -20.40950        0.49390
O          7.30440      -20.86260        0.36130
C          6.64620      -21.99520        0.01660
