17
Properties=species:S:1:pos:R:3:forces:R:3 energy=-11376.30063481725 stress="0.0 0.0 0.0 0.0 0.0 0.0 0.0 0.0 0.0" pbc="F F F"
O         19.62170      -10.13640        0.66820
C         18.83670      -12.00800       -0.60300
H         18.94020      -11.88200       -1.68610
H         17.84280      -11.68710       -0.28690
H         18.98710      -13.07110       -0.38440
C         19.87990      -11.18200        0.10050
N         21.66850      -12.91930        0.02260
C         23.03280      -12.88230        0.01490
H         23.62770      -13.78620        0.03600
C         23.47170      -11.58490       -0.01160
H         24.46040      -11.14680       -0.02170
N         22.34990      -10.80250       -0.02510
C         21.28620      -11.65610       -0.02220
C         22.32350       -9.34960       -0.00240
H         23.33340       -8.99030       -0.21280
H         21.98630       -8.97750        0.96630
H         21.64390       -8.98410       -0.77300
