20
Properties=species:S:1:pos:R:3:forces:R:3 energy=-13476.50887157487 stress="0.0 0.0 0.0 0.0 0.0 0.0 0.0 0.0 0.0" pbc="F F F"
C         21.68200      -26.60960       -0.01140
H         22.23720      -27.54240       -0.02920
C         20.29280      -26.60620       -0.00130
H         19.75050      -27.54840       -0.00190
C         19.59770      -25.39970        0.00590
H         18.51110      -25.39840        0.01150
C         20.29580      -24.19500        0.00810
H         19.75590      -23.25150        0.01830
C         21.68510      -24.19490        0.00410
H         22.24250      -23.26350        0.02230
C         22.38550      -25.40300       -0.01650
C         25.81370      -26.51410       -0.39530
H         26.30390      -27.43130       -0.71720
N         24.48440      -26.53080       -0.39000
C         23.87140      -25.40630       -0.00080
N         24.48320      -24.27660        0.37470
C         25.81250      -24.29340        0.38420
H         26.30190      -23.37490        0.70400
C         26.54980      -25.40420       -0.00320
H         27.63400      -25.40410       -0.00160
