18
Properties=species:S:1:pos:R:3:forces:R:3 energy=-6416.004073182956 stress="0.0 0.0 0.0 0.0 0.0 0.0 0.0 0.0 0.0" pbc="F F F"
C          4.77450       -0.60520       -1.95390
H          5.78210       -0.38670       -1.58660
H          4.83170       -1.51310       -2.56590
C          3.80500       -0.77590       -0.78870
H          4.17760       -1.54840       -0.10170
H          3.80170        0.16100       -0.20900
C          2.36600       -1.10490       -1.15680
C          1.88480       -0.69390       -2.52800
H          1.96750        0.39230       -2.66210
H          2.49130       -1.16070       -3.31150
H          0.84470       -0.96950       -2.71080
C          1.58740       -1.65460       -0.22180
H          2.05720       -1.90790        0.73250
C          0.12800       -1.98460       -0.30790
H         -0.03830       -3.05160       -0.11720
H         -0.43780       -1.43770        0.45630
H          4.47140        0.22060       -2.60570
H         -0.31070       -1.74670       -1.27900
