20
Properties=species:S:1:pos:R:3:forces:R:3 energy=-13476.206130930132 stress="0.0 0.0 0.0 0.0 0.0 0.0 0.0 0.0 0.0" pbc="F F F"
C         12.96060      -24.08170       -0.42160
H         13.49450      -23.20090       -0.76740
C         11.57300      -24.10950       -0.41310
H         11.00250      -23.25570       -0.76940
C         10.93170      -25.25190        0.04900
H          9.84900      -25.32830        0.06950
C         11.72110      -26.30820        0.49530
H         11.26170      -27.22120        0.87090
N         13.05230      -26.28940        0.51080
C         13.66320      -25.19650        0.04520
C         17.23830      -24.64490       -1.03010
H         17.80060      -24.22070       -1.85790
C         15.85050      -24.64390       -1.04830
H         15.30830      -24.23570       -1.89680
C         15.15870      -25.19900        0.03220
N         15.77990      -25.74220        1.08250
C         17.11120      -25.71900        1.09390
H         17.57930      -26.15980        1.97270
C         17.89040      -25.18820        0.06970
H         18.97370      -25.20700        0.13730
