18
Properties=species:S:1:pos:R:3:forces:R:3 energy=-12876.017620527542 stress="0.0 0.0 0.0 0.0 0.0 0.0 0.0 0.0 0.0" pbc="F F F"
C         13.90550      -15.02820       -0.01440
H         14.44470      -14.08470       -0.03100
C         12.51770      -15.05600       -0.02600
H         11.94840      -14.13040       -0.04110
C         11.87420      -16.28730       -0.01110
H         10.79090      -16.36260       -0.01460
C         12.65970      -17.43610        0.00840
H         12.19780      -18.42180        0.02110
N         13.99050      -17.42690        0.00950
C         14.60270      -16.23990       -0.00480
N         16.88630      -16.94160       -0.75580
C         18.15460      -16.56260       -0.39600
H         19.02270      -16.99030       -0.87990
C         18.12010      -15.62930        0.60350
H         18.89510      -15.10420        1.14250
N         16.78520      -15.42430        0.85050
H         16.38830      -14.84270        1.57160
C         16.08430      -16.24940        0.01820
