22
Properties=species:S:1:pos:R:3:forces:R:3 energy=-12603.628246696435 stress="0.0 0.0 0.0 0.0 0.0 0.0 0.0 0.0 0.0" pbc="F F F"
C         13.18590      -19.59940       -0.00200
H         13.73180      -18.65810       -0.00020
C         11.79530      -19.59880        0.00760
H         11.25610      -18.65520        0.01400
C         11.09610      -20.80280        0.00100
H         10.00910      -20.80330        0.00260
C         11.79620      -22.00620       -0.00510
H         11.25790      -22.95040       -0.00560
C         13.18680      -22.00420        0.00090
H         13.73460      -22.94440        0.00450
C         13.89930      -20.80170       -0.01160
C         17.47790      -21.39770        1.08570
H         18.00560      -21.88450        1.90160
C         16.08780      -21.42190        1.05070
H         15.53100      -21.92410        1.83920
C         15.38900      -20.80320        0.00990
C         16.11510      -20.14880       -0.98940
H         15.57850      -19.65550       -1.79720
C         17.50540      -20.13640       -0.96480
H         18.05460      -19.63160       -1.75510
C         18.19110      -20.75890        0.07490
H         19.27770      -20.74450        0.09830
