22
Properties=species:S:1:pos:R:3:forces:R:3 energy=-15303.335900667498 stress="0.0 0.0 0.0 0.0 0.0 0.0 0.0 0.0 0.0" pbc="F F F"
C         12.86040      -32.63620       -0.99340
H         13.42490      -32.07650       -1.73580
C         11.46900      -32.61700       -1.00760
H         10.94380      -32.04450       -1.76720
C         10.75360      -33.32410       -0.04550
H          9.66620      -33.30720       -0.05360
C         11.43330      -34.05060        0.92790
H         10.87940      -34.60210        1.68260
C         12.82420      -34.07310        0.93560
H         13.36250      -34.64590        1.68660
C         13.54930      -33.37790       -0.03220
C         17.14250      -32.22880        0.44740
H         17.67710      -31.35380        0.80550
C         15.75110      -32.24240        0.45420
H         15.19840      -31.37660        0.80940
C         15.03670      -33.35840        0.01380
C         15.77300      -34.43880       -0.46540
C         17.15760      -34.44980       -0.49140
H         17.66950      -35.32810       -0.87040
C         17.84440      -33.33340       -0.02630
H         18.93100      -33.32770       -0.03750
F         15.10990      -35.52190       -0.90560
