10
Properties=species:S:1:pos:R:3:forces:R:3 energy=-6263.6012040277765 stress="0.0 0.0 0.0 0.0 0.0 0.0 0.0 0.0 0.0" pbc="F F F"
O          0.67240       -3.67120        2.87860
H          1.63820       -3.63720        2.86070
C          0.20620       -3.43020        1.57910
H          0.54980       -2.45690        1.20470
H         -0.89040       -3.43480        1.65510
O          0.63040       -4.38200        0.64700
C          0.20020       -5.69160        0.96710
H          0.61710       -6.35690        0.20820
H         -0.89840       -5.76650        0.94490
H          0.55150       -5.99410        1.96050
