14
Properties=species:S:1:pos:R:3:forces:R:3 energy=-4310.548347049386 stress="0.0 0.0 0.0 0.0 0.0 0.0 0.0 0.0 0.0" pbc="F F F"
C          1.05240       -1.63380        2.63660
H          1.48750       -0.62810        2.63320
H          1.77990       -2.30560        3.10390
C          0.69390       -2.10090        1.22650
H          1.59760       -2.12340        0.60190
C         -0.36820       -1.23280        0.54470
H         -1.24270       -1.14720        1.20430
H         -0.71880       -1.74260       -0.36180
C          0.13190        0.16090        0.16660
H          0.42760        0.73960        1.04880
H         -0.64250        0.73140       -0.35690
H          1.00430        0.09600       -0.49410
H          0.33190       -3.13580        1.27630
H          0.16240       -1.60680        3.27630
