14
Properties=species:S:1:pos:R:3:forces:R:3 energy=-10306.859962725224 stress="0.0 0.0 0.0 0.0 0.0 0.0 0.0 0.0 0.0" pbc="F F F"
O          5.59050      -10.11450        0.82030
C          4.64690      -11.97180       -0.37300
H          4.77260      -13.03890       -0.15800
H          3.68400      -11.61200       -0.00580
H          4.69840      -11.85480       -1.46090
C          5.75940      -11.18340        0.26530
N          7.54540      -12.94760        0.07170
C          8.91110      -12.88480       -0.01320
H          9.51730      -13.78100       -0.04050
C          9.33460      -11.58020       -0.04340
H         10.31870      -11.13680       -0.10070
N          8.19370      -10.82960        0.01870
H          8.11050       -9.82830        0.11630
C          7.14350      -11.69410        0.06070
