12
Properties=species:S:1:pos:R:3:forces:R:3 energy=-6760.588009648815 stress="0.0 0.0 0.0 0.0 0.0 0.0 0.0 0.0 0.0" pbc="F F F"
C         -0.76450       -2.98740        2.00500
H         -0.65210       -2.22570        2.78150
H         -1.19260       -3.87850        2.47360
H         -1.47450       -2.61830        1.24940
N          0.55470       -3.31280        1.47470
H          1.02040       -2.49440        1.09540
C          0.68280       -4.32500        0.52140
C          0.21890       -5.69850        0.96150
H         -0.87460       -5.77230        0.92460
H          0.52910       -5.90410        1.99070
H          0.64310       -6.44210        0.28500
O          1.26540       -4.13050       -0.52630
