14
Properties=species:S:1:pos:R:3:forces:R:3 energy=-8266.688714184855 stress="0.0 0.0 0.0 0.0 0.0 0.0 0.0 0.0 0.0" pbc="F F F"
C          2.25420       -3.45660       -0.86830
H          2.60760       -2.51110       -1.28780
H          3.11970       -4.09920       -0.65160
H          1.62860       -3.95680       -1.61060
N          1.43220       -3.18040        0.30430
H          1.95590       -2.70800        1.02980
C          0.66250       -4.23830        0.78600
N          0.78050       -4.47230        2.14560
H          1.02900       -3.67850        2.71950
C         -0.15620       -5.40450        2.75100
H         -0.17860       -6.31540        2.15190
H          0.18690       -5.64860        3.75890
H         -1.17810       -5.00680        2.79950
O          0.00890       -4.95940        0.05280
