16
Properties=species:S:1:pos:R:3:forces:R:3 energy=-20705.230286245514 stress="0.0 0.0 0.0 0.0 0.0 0.0 0.0 0.0 0.0" pbc="F F F"
C         29.09400       -3.43780        0.21760
N         29.44070       -4.73520       -0.09820
H         28.71140       -5.39320       -0.33180
C         31.07200       -6.56820       -0.14910
H         30.33610       -7.35020       -0.30910
C         32.47580       -6.78740       -0.03990
H         32.94260       -7.76420       -0.11120
C         33.17030       -5.63560        0.16330
H         34.24040       -5.52100        0.27920
S         32.14370       -4.24730        0.23570
C         30.74430       -5.24590       -0.02850
O         29.92830       -2.61480        0.53730
C         27.61210       -3.15010        0.12140
H         27.04500       -3.77570        0.81890
H         27.23940       -3.34540       -0.88960
H         27.44440       -2.10180        0.36730
