17
Properties=species:S:1:pos:R:3:forces:R:3 energy=-11375.971124881882 stress="0.0 0.0 0.0 0.0 0.0 0.0 0.0 0.0 0.0" pbc="F F F"
O         18.99400      -11.97310       -0.45250
C         19.44380       -9.93920        0.70340
H         19.62230       -9.08610        0.03980
H         18.37700       -9.97680        0.93370
H         20.01420       -9.77960        1.62370
C         19.82990      -11.23840        0.02430
N         21.65280      -12.89570       -0.02870
C         23.01370      -12.87110        0.00190
H         23.59550      -13.78410        0.00020
C         23.46610      -11.58030        0.02670
H         24.45880      -11.15260        0.04970
N         22.35090      -10.78450        0.01560
C         21.27180      -11.63540       -0.01330
C         22.39820       -9.33420       -0.04450
H         23.43160       -9.03830       -0.23410
H         21.77950       -8.95440       -0.86140
H         22.08020       -8.87980        0.89810
