19
Properties=species:S:1:pos:R:3:forces:R:3 energy=-12543.16939467777 stress="0.0 0.0 0.0 0.0 0.0 0.0 0.0 0.0 0.0" pbc="F F F"
C          4.40100      -10.40200       -0.00110
H          4.93890      -11.34660       -0.00850
C          3.01020      -10.39060       -0.00250
H          2.46210      -11.32960       -0.00700
C          2.32280       -9.18070        0.00050
H          1.23550       -9.17190       -0.00050
C          3.02970       -7.98210        0.00190
H          2.49680       -7.03430        0.00090
C          4.42040       -7.99320        0.00350
H          4.97360       -7.05730        0.00050
C          5.11720       -9.20330        0.01020
C          7.53230       -9.21470        0.99170
H          7.32910       -9.20270        2.05370
C          8.80960       -9.23340        0.34340
H          9.78320       -9.23800        0.81400
C          8.54810       -9.24430       -0.98600
H          9.16750       -9.25900       -1.87190
O          7.21030       -9.23410       -1.21230
C          6.59720       -9.21490        0.00520
