18
Properties=species:S:1:pos:R:3:forces:R:3 energy=-6416.05175405241 stress="0.0 0.0 0.0 0.0 0.0 0.0 0.0 0.0 0.0" pbc="F F F"
C          3.99340        0.61090       -0.26010
H          5.05130        0.81560       -0.06360
H          3.62840        1.37010       -0.96220
C          3.80520       -0.80130       -0.83320
H          4.41450       -0.90760       -1.73900
H          4.18600       -1.53660       -0.11080
C          2.35990       -1.12370       -1.15740
C          1.89190       -0.68970       -2.52340
H          2.46690       -1.19900       -3.30780
H          0.83370       -0.89710       -2.69890
H          2.05020        0.38780       -2.66670
C          1.58160       -1.68050       -0.22430
H          2.06130       -1.96420        0.71540
C          0.11530       -1.98370       -0.30560
H         -0.06820       -3.05320       -0.14620
H         -0.43650       -1.44860        0.47740
H          3.44650        0.73980        0.68000
H         -0.32300       -1.71020       -1.26760
