17
Properties=species:S:1:pos:R:3:forces:R:3 energy=-11376.328469600896 stress="0.0 0.0 0.0 0.0 0.0 0.0 0.0 0.0 0.0" pbc="F F F"
C         18.62560      -30.92840       -0.22760
N         19.88210      -30.46530        0.09100
H         19.94760      -29.54710        0.50590
C         21.25870      -32.58570       -0.15340
H         20.47200      -33.30770       -0.30760
C         22.66920      -32.79670       -0.11070
H         23.18190      -33.74320       -0.21770
C         23.26780      -31.58040        0.08650
H         24.30950      -31.30850        0.17520
N         22.27350      -30.62850        0.18220
H         22.43550      -29.63430        0.20760
C         21.05320      -31.24240        0.02960
O         18.42560      -32.05130       -0.64590
C         17.52570      -29.90150       -0.02970
H         17.66470      -29.05080       -0.70580
H         17.51340      -29.51980        0.99690
H         16.56780      -30.37390       -0.24750
