16
Properties=species:S:1:pos:R:3:forces:R:3 energy=-10906.758687761378 stress="0.0 0.0 0.0 0.0 0.0 0.0 0.0 0.0 0.0" pbc="F F F"
C          7.54630      -21.30620        0.19150
H          6.64710      -20.70820        0.30710
C          7.52140      -22.68780        0.33320
H          6.59560      -23.20720        0.56530
C          8.70830      -23.39250        0.17930
H          8.73990      -24.47340        0.28140
C          9.86940      -22.68570       -0.12720
N          9.90640      -21.35730       -0.26720
C          8.76310      -20.69500       -0.10390
H          8.82590      -19.61460       -0.22070
C         11.18880      -23.41420       -0.28960
O         11.91570      -23.18690       -1.22870
C         11.55870      -24.39700        0.80340
H         11.51660      -23.91580        1.78710
H         10.85880      -25.24050        0.82870
H         12.56520      -24.77430        0.61190
