17
Properties=species:S:1:pos:R:3:forces:R:3 energy=-11376.424063472663 stress="0.0 0.0 0.0 0.0 0.0 0.0 0.0 0.0 0.0" pbc="F F F"
C         19.06730      -30.29840        1.13100
N         19.90430      -30.46600        0.04400
H         19.51020      -30.11210       -0.81960
C         21.30120      -32.59230        0.01770
H         20.53730      -33.35900        0.04930
C         22.70870      -32.79040       -0.00960
H         23.22400      -33.74320        0.00150
C         23.30040      -31.55240       -0.05880
H         24.34210      -31.26320       -0.09650
N         22.30510      -30.61540       -0.06740
H         22.43020      -29.61590       -0.04220
C         21.07810      -31.23440       -0.00650
O         18.00460      -29.72310        1.00080
C         19.55300      -30.84170        2.45610
H         19.16470      -31.85590        2.60080
H         19.15190      -30.21210        3.25210
H         20.64460      -30.87770        2.50820
