10
Properties=species:S:1:pos:R:3:forces:R:3 energy=-6263.322675306287 stress="0.0 0.0 0.0 0.0 0.0 0.0 0.0 0.0 0.0" pbc="F F F"
O          0.13140       -2.07590        1.24710
H         -0.08640       -1.48100        1.97430
C          0.36990       -3.36300        1.78610
H          1.26080       -3.35050        2.43320
H         -0.47660       -3.71920        2.39320
C          0.56670       -4.34710        0.62470
H          0.55160       -3.77610       -0.31210
H          1.54160       -4.83630        0.70410
O         -0.38140       -5.39890        0.61760
H         -1.22410       -5.02930        0.32600
