18
Properties=species:S:1:pos:R:3:forces:R:3 energy=-10939.148714433453 stress="0.0 0.0 0.0 0.0 0.0 0.0 0.0 0.0 0.0" pbc="F F F"
C         -3.08790        1.25580       -2.30190
H         -4.13790        1.47060       -2.47950
C         -2.09050        2.14090       -2.68930
H         -2.33760        3.07710       -3.18510
C         -0.76690        1.80610       -2.42920
H          0.05130        2.46210       -2.71620
C         -0.49190        0.59560       -1.79410
N         -1.44460       -0.26370       -1.42240
C         -2.71070        0.07440       -1.67270
H         -3.46420       -0.64370       -1.35110
C          0.93370        0.18480       -1.48470
H          1.62420        0.92240       -1.92510
H          1.08200        0.18490       -0.40020
O          1.25180       -1.11610       -1.90560
C          1.21860       -1.26540       -3.30550
H          1.54560       -2.28490       -3.52590
H          0.20340       -1.12220       -3.70320
H          1.89560       -0.55590       -3.80820
