13
Properties=species:S:1:pos:R:3:forces:R:3 energy=-18603.211217769996 stress="0.0 0.0 0.0 0.0 0.0 0.0 0.0 0.0 0.0" pbc="F F F"
C         -1.12010       -1.38030       -0.59810
H         -0.38680       -1.16530       -1.37760
H         -0.94520       -0.76910        0.28990
H         -2.13210       -1.21840       -0.97310
S         -0.98920       -3.09890       -0.16200
O         -1.22270       -3.89470       -1.35360
N          0.64250       -3.24120        0.23590
H          0.84980       -2.58780        0.98880
O         -1.79320       -3.31350        1.03450
C          1.02460       -4.60480        0.64400
H          0.86820       -5.28130       -0.19940
H          0.46230       -4.97290        1.51200
H          2.09070       -4.58580        0.88060
