16
Properties=species:S:1:pos:R:3:forces:R:3 energy=-10907.027177997397 stress="0.0 0.0 0.0 0.0 0.0 0.0 0.0 0.0 0.0" pbc="F F F"
C          7.54330      -21.30730        0.17370
H          6.63950      -20.71260        0.26930
C          7.51630      -22.69110        0.31690
H          6.58440      -23.20940        0.52630
C          8.70150      -23.40030        0.17880
H          8.74270      -24.48250        0.25420
C          9.87110      -22.68610       -0.07780
N          9.90860      -21.35950       -0.22560
C          8.76050      -20.69360       -0.10090
H          8.81980      -19.61340       -0.22330
C         11.17160      -23.43380       -0.26550
O         11.15940      -24.59370       -0.62390
C         12.43760      -22.69550        0.08710
H         12.48600      -21.74580       -0.45470
H         12.43420      -22.44790        1.15460
H         13.29830      -23.32240       -0.14870
