17
Properties=species:S:1:pos:R:3:forces:R:3 energy=-8893.143613552658 stress="0.0 0.0 0.0 0.0 0.0 0.0 0.0 0.0 0.0" pbc="F F F"
C          2.17280       -1.09220       -0.11490
H          2.86610       -1.09230        0.72330
C          2.42940       -1.88180       -1.23020
H          3.31860       -2.50430       -1.27230
C          1.53000       -1.86060       -2.29330
H          1.71440       -2.46970       -3.17510
C          0.39350       -1.06630       -2.24340
H         -0.30880       -1.06520       -3.07550
C          0.12630       -0.27600       -1.11620
C          1.03730       -0.29190       -0.05240
H          0.85940        0.32300        0.82560
N         -1.04180        0.48540       -1.06970
H         -1.47870        0.55740       -1.97820
C         -1.06990        1.73050       -0.32740
H         -1.06950        1.53310        0.75010
H         -0.22520        2.40050       -0.55110
H         -2.00120        2.25210       -0.56290
