14
Properties=species:S:1:pos:R:3:forces:R:3 energy=-31478.153191794525 stress="0.0 0.0 0.0 0.0 0.0 0.0 0.0 0.0 0.0" pbc="F F F"
C          2.01430      -24.63490       -0.90540
H          0.96570      -24.65480       -1.17150
C          2.79030      -25.67060       -0.49640
H          2.45090      -26.69140       -0.37750
N          4.09940      -25.36690       -0.22020
C          4.31020      -24.10760       -0.42910
S          2.95020      -23.18870       -0.95340
S          5.89070      -23.29010       -0.18900
C          6.85550      -24.53110        0.63950
H          6.85550      -25.44120        0.03580
H          7.86600      -24.12550        0.72970
H          6.42680      -24.71030        1.62750
O          6.48170      -23.06480       -1.50080
O          5.67160      -22.18480        0.73160
