19
Properties=species:S:1:pos:R:3:forces:R:3 energy=-12439.883518845629 stress="0.0 0.0 0.0 0.0 0.0 0.0 0.0 0.0 0.0" pbc="F F F"
C          5.62930      -17.47740        0.02360
H          6.20430      -18.39950        0.04500
C          4.24100      -17.49760        0.00950
H          3.71530      -18.44880        0.00860
C          3.52400      -16.30390       -0.00040
H          2.43760      -16.32110       -0.01080
C          4.20420      -15.08850        0.00820
H          3.65140      -14.15240        0.00510
C          5.59370      -15.06610        0.01790
H          6.10890      -14.10750        0.04330
C          6.31800      -16.26130        0.01980
N          8.53990      -17.29670        0.37480
C          9.83450      -16.87480        0.21840
H         10.67020      -17.52190        0.45030
C          9.87150      -15.59300       -0.25230
H         10.68660      -14.93000       -0.50120
N          8.55430      -15.21810       -0.37440
H          8.21870      -14.36090       -0.78360
C          7.78800      -16.27780        0.01830
