22
Properties=species:S:1:pos:R:3:forces:R:3 energy=-15303.434992670427 stress="0.0 0.0 0.0 0.0 0.0 0.0 0.0 0.0 0.0" pbc="F F F"
C         12.83510      -32.20790       -0.37870
H         13.38510      -31.32780       -0.70500
C         11.44640      -32.17600       -0.34510
H         10.92120      -31.26730       -0.62790
C         10.73270      -33.29960        0.06190
H          9.64690      -33.27480        0.09750
C         11.41990      -34.45590        0.41820
H         10.87160      -35.34030        0.73110
C         12.80870      -34.49460        0.36520
H         13.33550      -35.40340        0.64110
C         13.53650      -33.36450       -0.02090
C         17.13380      -32.23330        0.44920
H         17.65370      -31.35380        0.81800
C         15.74480      -32.25310        0.42390
H         15.19570      -31.39280        0.79850
C         15.02700      -33.36260       -0.03830
C         15.78810      -34.44880       -0.47580
C         17.17360      -34.45410       -0.47230
H         17.69430      -35.33620       -0.83130
C         17.85150      -33.33590       -0.00340
H         18.93740      -33.32810        0.00850
F         15.16780      -35.54940       -0.95150
