18
Properties=species:S:1:pos:R:3:forces:R:3 energy=-8457.013319651373 stress="0.0 0.0 0.0 0.0 0.0 0.0 0.0 0.0 0.0" pbc="F F F"
C          5.52230      -23.17850       -0.06070
C          6.81690      -22.38390       -0.04350
H          6.98050      -21.99600        0.97240
C          8.05920      -23.14450       -0.49490
H          8.29860      -23.96460        0.19060
H          7.91830      -23.56960       -1.49450
H          8.92730      -22.47880       -0.53020
H          6.68650      -21.49680       -0.67670
C          4.30430      -22.49250       -0.05990
H          4.30910      -21.40330       -0.06280
C          3.09170      -23.17230       -0.05200
H          2.15800      -22.61400       -0.05060
C          3.07370      -24.56410       -0.04720
H          2.12870      -25.10110       -0.04130
C          4.27690      -25.26030       -0.05090
H          4.27850      -26.34800       -0.04920
C          5.48860      -24.57460       -0.05840
H          6.41590      -25.14270       -0.07100
