15
Properties=species:S:1:pos:R:3:forces:R:3 energy=-7830.499186353676 stress="0.0 0.0 0.0 0.0 0.0 0.0 0.0 0.0 0.0" pbc="F F F"
C          2.70490       -2.12390       -1.07950
H          3.78660       -1.97820       -0.98680
H          2.53150       -3.06930       -1.60460
H          2.30080       -1.31020       -1.69150
C          2.05120       -2.16460        0.30040
H          2.48510       -2.97480        0.89150
H          2.22170       -1.22530        0.83610
N          0.62000       -2.40240        0.24880
H         -0.01210       -1.61960        0.20270
C          0.11120       -3.66730        0.27920
C         -1.40260       -3.74850        0.22220
H         -1.71700       -4.69060        0.67320
H         -1.88540       -2.91470        0.74270
H         -1.73880       -3.74020       -0.82090
O          0.82840       -4.65430        0.32950
