14
Properties=species:S:1:pos:R:3:forces:R:3 energy=-31478.186529610906 stress="0.0 0.0 0.0 0.0 0.0 0.0 0.0 0.0 0.0" pbc="F F F"
C          2.01550      -24.63810       -0.90260
H          0.96990      -24.67840       -1.18100
C          2.79960      -25.65620       -0.45900
H          2.47010      -26.67800       -0.31880
N          4.10090      -25.33560       -0.17110
C          4.30300      -24.08240       -0.41190
S          2.93290      -23.18680       -0.96790
S          5.89390      -23.28560       -0.18080
C          6.69640      -23.48380       -1.76640
H          6.07530      -23.02180       -2.53520
H          7.65450      -22.96520       -1.69100
H          6.85330      -24.54690       -1.95910
O          5.62280      -21.86450       -0.01270
O          6.64820      -24.04360        0.80420
