18
Properties=species:S:1:pos:R:3:forces:R:3 energy=-21768.185464045342 stress="0.0 0.0 0.0 0.0 0.0 0.0 0.0 0.0 0.0" pbc="F F F"
C         30.19990       -8.38260        0.01410
H         30.78680       -7.46930        0.03340
C         28.81130       -8.34780        0.01870
H         28.28250       -7.39870        0.03900
C         28.11550       -9.54940       -0.00370
H         27.02960       -9.57630       -0.00160
C         28.84660      -10.73240       -0.02910
H         28.33890      -11.69440       -0.04760
N         30.17880      -10.78640       -0.03360
C         30.84020       -9.62340       -0.00920
C         33.13750       -9.49610       -1.11740
H         32.75160       -9.26670       -2.10420
C         34.52390       -9.63090       -0.80350
H         35.32650       -9.51260       -1.52390
C         34.72710       -9.92990        0.51020
H         35.66730      -10.08840        1.02270
S         33.24640      -10.05610        1.37930
C         32.32590       -9.68410       -0.03650
