20
Properties=species:S:1:pos:R:3:forces:R:3 energy=-13476.138287050104 stress="0.0 0.0 0.0 0.0 0.0 0.0 0.0 0.0 0.0" pbc="F F F"
C         12.97410      -24.09860       -0.42660
H         13.53180      -23.24100       -0.79110
C         11.58570      -24.09870       -0.38950
H         11.02290      -23.22990       -0.72030
C         10.93510      -25.23430        0.07640
H          9.85150      -25.28850        0.12560
C         11.71030      -26.31620        0.48140
H         11.23830      -27.22540        0.84900
N         13.04480      -26.33240        0.45510
C         13.65860      -25.23240        0.01150
C         17.25130      -24.81040        1.07610
H         17.83040      -24.47060        1.93070
C         15.86290      -24.80580        1.11520
H         15.32140      -24.47290        1.99570
C         15.15720      -25.24560       -0.00480
N         15.75020      -25.68780       -1.11670
C         17.08500      -25.68780       -1.13610
H         17.53970      -26.05180       -2.05530
C         17.88050      -25.26140       -0.07740
H         18.96300      -25.28720       -0.16130
