13
Properties=species:S:1:pos:R:3:forces:R:3 energy=-18603.2736706103 stress="0.0 0.0 0.0 0.0 0.0 0.0 0.0 0.0 0.0" pbc="F F F"
C         -1.16340       -1.38480       -0.65890
H         -0.88950       -0.73100        0.17260
H         -0.55630       -1.18310       -1.54400
H         -2.21990       -1.25220       -0.90220
S         -0.98410       -3.08980       -0.17620
O         -1.75570       -3.29750        1.03650
N          0.60090       -3.28450        0.27250
H          0.66660       -3.18710        1.27840
O         -1.21170       -3.87880       -1.37260
C          1.66290       -2.63630       -0.48750
H          1.59570       -2.94120       -1.53550
H          1.64670       -1.54000       -0.42530
H          2.61720       -2.98950       -0.09210
