18
Properties=species:S:1:pos:R:3:forces:R:3 energy=-21768.618929413868 stress="0.0 0.0 0.0 0.0 0.0 0.0 0.0 0.0 0.0" pbc="F F F"
C         21.83640      -21.15950       -0.00580
H         22.41390      -20.23970       -0.01040
C         20.44790      -21.13360        0.00290
H         19.92570      -20.18030        0.00520
C         19.72900      -22.32610        0.00870
H         18.64240      -22.30660        0.01550
C         20.40570      -23.54310        0.00570
H         19.84940      -24.47640        0.01010
C         21.79550      -23.57470       -0.00300
H         22.31060      -24.53170       -0.00520
C         22.52010      -22.37940       -0.00880
N         24.69290      -21.26240       -0.02360
C         26.03520      -21.53330       -0.03180
H         26.73880      -20.70950       -0.03710
C         26.37540      -22.84950       -0.03250
H         27.36350      -23.28540       -0.03830
S         24.95560      -23.81380       -0.02260
C         23.99430      -22.36120       -0.01810
