19
Properties=species:S:1:pos:R:3:forces:R:3 energy=-11977.033460278197 stress="0.0 0.0 0.0 0.0 0.0 0.0 0.0 0.0 0.0" pbc="F F F"
C         -0.14990        0.07520       -1.57570
N         -1.48720        0.07350       -1.12720
H         -1.60300        0.21020       -0.13440
C          0.83850        0.47750       -0.67150
H          0.55780        0.79770        0.33000
C          2.17510        0.47840       -1.04800
H          2.93220        0.79830       -0.33640
C          2.54270        0.06820       -2.32630
H          3.58720        0.06490       -2.62490
C          1.55610       -0.33880       -3.21890
H          1.83060       -0.66010       -4.22120
C          0.21260       -0.34000       -2.85860
H         -0.55430       -0.64690       -3.55820
C         -2.63440        0.05920       -1.88600
C         -3.90350        0.16440       -1.05910
H         -3.93700        1.11220       -0.51060
H         -3.96470       -0.65010       -0.32970
H         -4.75880        0.11060       -1.73180
O         -2.64040       -0.03190       -3.09890
