19
Properties=species:S:1:pos:R:3:forces:R:3 energy=-12439.513354226183 stress="0.0 0.0 0.0 0.0 0.0 0.0 0.0 0.0 0.0" pbc="F F F"
C         21.31280      -34.79820        0.00480
H         21.83240      -33.84330        0.02250
C         19.92510      -34.83430        0.00640
H         19.35390      -33.90950        0.00390
C         19.28340      -36.06690        0.00800
H         18.20040      -36.14470        0.00570
C         20.07360      -37.21130        0.01920
H         19.61500      -38.19840        0.02730
N         21.40380      -37.19480        0.02580
C         22.02040      -36.00560        0.00390
C         24.31750      -37.08910        0.35890
H         23.97490      -38.06110        0.68840
C         25.65210      -36.63600        0.20980
H         26.55480      -37.19670        0.41320
C         25.59620      -35.34270       -0.25000
H         26.38610      -34.64620       -0.49310
N         24.27880      -34.99270       -0.36890
H         23.94750      -34.14180       -0.79270
C         23.48530      -36.05830       -0.01120
