21
Properties=species:S:1:pos:R:3:forces:R:3 energy=-15739.683150506009 stress="0.0 0.0 0.0 0.0 0.0 0.0 0.0 0.0 0.0" pbc="F F F"
C         21.85070      -32.20350       -0.62720
H         22.40900      -31.46910       -1.20070
C         20.46770      -32.12900       -0.55560
H         19.93540      -31.32030       -1.05030
C         19.77960      -33.09620        0.16590
H         18.69860      -33.07710        0.25980
C         20.52360      -34.10780        0.76380
H         20.02810      -34.89370        1.33100
N         21.84850      -34.20470        0.68470
C         22.51540      -33.25240        0.02270
C         26.16380      -32.19530       -0.02480
H         26.72310      -31.26450       -0.04360
C         24.77530      -32.16710       -0.04010
H         24.27410      -31.20240       -0.04480
C         24.00860      -33.33700       -0.01690
C         24.71160      -34.54480        0.02680
C         26.09880      -34.59710        0.03650
H         26.58020      -35.56930        0.06470
C         26.82800      -33.41660        0.01190
H         27.91320      -33.45280        0.02170
F         24.06000      -35.71270        0.02290
