14
Properties=species:S:1:pos:R:3:forces:R:3 energy=-10410.144893250328 stress="0.0 0.0 0.0 0.0 0.0 0.0 0.0 0.0 0.0" pbc="F F F"
O          4.53450       -3.21110        0.68760
C          3.58620       -5.00180       -0.58390
H          3.56480       -6.05790       -0.29190
H          2.63770       -4.52830       -0.32440
H          3.73050       -4.96860       -1.66980
C          4.70720       -4.26640        0.11680
C          6.52370       -6.14350        0.02240
H          5.92030       -7.04280        0.04010
C          7.95050       -6.05740        0.00200
H          8.66130       -6.87160       -0.00060
C          8.23760       -4.73040       -0.00860
H          9.16410       -4.17350       -0.02000
O          7.11050       -3.99160        0.00910
C          6.06430       -4.86030       -0.00490
