16
Properties=species:S:1:pos:R:3:forces:R:3 energy=-10906.703146487713 stress="0.0 0.0 0.0 0.0 0.0 0.0 0.0 0.0 0.0" pbc="F F F"
C          7.55720      -21.31560        0.19300
H          6.65830      -20.71710        0.31060
C          7.53010      -22.69780        0.33500
H          6.60390      -23.21490        0.57090
C          8.71550      -23.40350        0.17420
H          8.75740      -24.48370        0.28520
C          9.87030      -22.69310       -0.13960
N          9.91900      -21.36600       -0.26230
C          8.77240      -20.70330       -0.10110
H          8.83430      -19.62280       -0.21430
C         11.19280      -23.41240       -0.31370
O         11.66150      -23.61310       -1.40970
C         11.86610      -23.80390        0.97720
H         12.80320      -24.32530        0.77200
H         11.20220      -24.44120        1.57430
H         12.05870      -22.90270        1.57240
