18
Properties=species:S:1:pos:R:3:forces:R:3 energy=-12979.908731785179 stress="0.0 0.0 0.0 0.0 0.0 0.0 0.0 0.0 0.0" pbc="F F F"
C          4.47530      -23.15280       -0.00580
H          5.02350      -24.09180       -0.01300
C          3.08400      -23.14610        0.01150
H          2.53750      -24.08570        0.02250
C          2.39310      -21.93800        0.00860
H          1.30580      -21.93420        0.01950
C          3.09270      -20.73430       -0.01320
H          2.55330      -19.79020       -0.02140
C          4.48310      -20.73830       -0.02430
H          5.03780      -19.80340       -0.04040
C          5.17990      -21.94890       -0.00500
N          7.43540      -22.34100       -1.01160
C          8.71370      -22.06860       -0.54820
H          9.58940      -22.28790       -1.14270
C          8.63410      -21.52170        0.68320
H          9.34230      -21.16280        1.41400
O          7.31440      -21.43320        1.01400
C          6.65700      -21.95860       -0.05040
