14
Properties=species:S:1:pos:R:3:forces:R:3 energy=-19198.92011750077 stress="0.0 0.0 0.0 0.0 0.0 0.0 0.0 0.0 0.0" pbc="F F F"
O         21.08410       -5.98960        0.38120
C         21.55510       -3.89130       -0.66480
H         21.95490       -3.83610       -1.68290
H         20.46800       -3.79910       -0.68510
H         21.98770       -3.05770       -0.10150
C         21.92070       -5.21220       -0.03230
C         23.83690       -6.86550       -0.00470
H         23.17350       -7.72410        0.00240
C         25.25890       -6.92380       -0.01960
H         25.82910       -7.84560       -0.03490
C         25.82820       -5.68580       -0.01110
H         26.88110       -5.43650       -0.01760
S         24.65340       -4.43530        0.00500
C         23.36010       -5.58510        0.02340
