15
Properties=species:S:1:pos:R:3:forces:R:3 energy=-9870.035294710126 stress="0.0 0.0 0.0 0.0 0.0 0.0 0.0 0.0 0.0" pbc="F F F"
O         12.37630      -30.01930        0.97000
C         11.45900      -31.45030       -0.71060
H         11.68970      -31.16310       -1.74200
H         10.50000      -31.02480       -0.40840
H         11.41360      -32.54540       -0.68680
C         12.54910      -30.95020        0.20540
C         14.39680      -32.81220        0.04570
H         13.80540      -33.71970        0.08420
C         15.81240      -32.72680       -0.00750
H         16.51300      -33.55030       -0.01350
C         16.13700      -31.39050       -0.03580
H         17.10000      -30.89850       -0.06760
N         14.97960      -30.67460       -0.01230
H         14.89320      -29.67920        0.12780
C         13.90280      -31.52540       -0.00840
