19
Properties=species:S:1:pos:R:3:forces:R:3 energy=-12439.32300552509 stress="0.0 0.0 0.0 0.0 0.0 0.0 0.0 0.0 0.0" pbc="F F F"
C         21.32930      -34.82630       -0.00860
H         21.89280      -33.89800       -0.01400
C         19.94120      -34.82700        0.01120
H         19.38860      -33.89110        0.01710
C         19.27740      -36.04680        0.01980
H         18.19270      -36.10440        0.03300
C         20.04270      -37.20770        0.00990
H         19.56290      -38.18440        0.01380
N         21.37480      -37.22490       -0.00460
C         22.00920      -36.04660       -0.00710
C         24.39830      -36.25970        0.99050
H         24.15960      -36.51510        2.01430
C         25.69860      -36.06190        0.45150
H         26.63820      -36.14600        0.98150
C         25.54570      -35.74120       -0.87380
H         26.27350      -35.51720       -1.64180
N         24.20470      -35.73400       -1.15160
H         23.80070      -35.54150       -2.05500
C         23.49170      -36.06410       -0.02430
