10
Properties=species:S:1:pos:R:3:forces:R:3 energy=-6263.444877439174 stress="0.0 0.0 0.0 0.0 0.0 0.0 0.0 0.0 0.0" pbc="F F F"
O          0.09630       -2.06600        1.25110
H         -0.64860       -2.16010        0.64170
C          0.34850       -3.35870        1.76080
H         -0.47140       -3.68980        2.41510
H          1.24250       -3.27380        2.38370
C          0.58120       -4.38840        0.62130
H         -0.07000       -5.25590        0.75500
H          1.61790       -4.75580        0.64250
O          0.26430       -3.84600       -0.64350
H          0.78650       -3.03630       -0.72510
