18
Properties=species:S:1:pos:R:3:forces:R:3 energy=-10939.237001969537 stress="0.0 0.0 0.0 0.0 0.0 0.0 0.0 0.0 0.0" pbc="F F F"
C         -3.07240        1.24410       -2.30530
H         -4.12250        1.45720       -2.48370
C         -2.07650        2.13650       -2.68670
H         -2.33030        3.07470       -3.17560
C         -0.74990        1.81210       -2.43170
H          0.06580        2.47410       -2.70390
C         -0.47510        0.59920       -1.80380
N         -1.42160       -0.26790       -1.43520
C         -2.68970        0.06010       -1.68430
H         -3.44030       -0.66550       -1.37040
C          0.94170        0.16820       -1.51240
H          0.94990       -0.34940       -0.54170
H          1.27050       -0.56160       -2.27320
O          1.79380        1.28580       -1.50550
C          3.12170        0.93270       -1.20900
H          3.71360        1.85070       -1.21340
H          3.19990        0.46050       -0.21750
H          3.53130        0.23970       -1.96060
