11
Properties=species:S:1:pos:R:3:forces:R:3 energy=-7300.908700645443 stress="0.0 0.0 0.0 0.0 0.0 0.0 0.0 0.0 0.0" pbc="F F F"
C         -0.78620       -3.28200        2.06770
H         -0.82910       -2.32530        2.59030
H         -0.91100       -4.09360        2.79390
O          0.48930       -3.32860        1.44610
C          0.74300       -4.33580        0.56890
H         -1.59780       -3.32960        1.33010
C          0.20950       -5.69930        0.95100
H          0.50580       -5.95510        1.97450
H          0.61840       -6.43800        0.26130
O          1.44080       -4.13090       -0.38690
H         -0.88470       -5.72860        0.89400
