22
Properties=species:S:1:pos:R:3:forces:R:3 energy=-15303.322539757686 stress="0.0 0.0 0.0 0.0 0.0 0.0 0.0 0.0 0.0" pbc="F F F"
C         12.82950      -32.10490        0.14530
H         13.37630      -31.16790        0.18770
C         11.44290      -32.04780        0.18920
H         10.95020      -31.08460        0.29730
C         10.69100      -33.21350        0.09630
H          9.60610      -33.17510        0.13340
C         11.34890      -34.42870       -0.05140
H         10.77680      -35.34940       -0.13300
C         12.73650      -34.48720       -0.10360
H         13.21620      -35.45110       -0.20870
C         13.51120      -33.32430        0.01780
C         17.14460      -32.23220        0.41180
H         17.66870      -31.34590        0.75860
C         15.75680      -32.23890        0.38630
H         15.24500      -31.35610        0.75320
C         15.00990      -33.34290       -0.05590
C         15.77500      -34.45010       -0.44500
C         17.16040      -34.47290       -0.43120
H         17.66740      -35.37480       -0.76120
C         17.85590      -33.35320        0.00040
H         18.94130      -33.35800        0.01660
F         15.18080      -35.57250       -0.91340
