19
Properties=species:S:1:pos:R:3:forces:R:3 energy=-12882.708607642679 stress="0.0 0.0 0.0 0.0 0.0 0.0 0.0 0.0 0.0" pbc="F F F"
C         26.84520       -9.77810        1.00150
N         27.24160      -10.64540       -0.00220
H         26.51370      -11.17160       -0.46530
N         28.64130      -12.59850        0.02270
C         30.00500      -12.78550        0.03050
H         30.43600      -13.77790        0.04230
C         30.65440      -11.58710        0.01190
H         31.70210      -11.31880        0.00470
N         29.66710      -10.62440       -0.00440
C         28.48680      -11.29890        0.01460
O         27.62870       -9.33990        1.82070
C         25.37440       -9.42010        0.97710
H         24.76670      -10.27570        1.29210
H         25.05410       -9.12750       -0.02780
H         25.20700       -8.59690        1.67090
C         29.88440       -9.18920       -0.05240
H         30.87420       -9.01270       -0.47930
H         29.81470       -8.74280        0.94180
H         29.13420       -8.73360       -0.70110
