18
Properties=species:S:1:pos:R:3:forces:R:3 energy=-8899.600133839702 stress="0.0 0.0 0.0 0.0 0.0 0.0 0.0 0.0 0.0" pbc="F F F"
C          2.75010       -3.23590        1.58260
H          3.71850       -2.83770        1.90420
H          2.16170       -3.46480        2.47600
H          2.91280       -4.16150        1.03340
C          2.05740       -2.18740        0.72120
H          2.61830       -2.05780       -0.21960
H          2.10130       -1.21860        1.23520
N          0.64220       -2.41770        0.41200
C         -0.09630       -1.19630        0.14940
H         -1.12750       -1.40290       -0.13180
H         -0.10270       -0.55210        1.03860
H          0.36770       -0.62950       -0.66850
C          0.10390       -3.67500        0.30790
C         -1.40580       -3.75950        0.15240
H         -1.93300       -3.19220        0.92510
H         -1.72360       -3.38740       -0.82770
H         -1.67940       -4.81220        0.22750
O          0.77530       -4.69660        0.32360
