10
Properties=species:S:1:pos:R:3:forces:R:3 energy=-6263.461483059524 stress="0.0 0.0 0.0 0.0 0.0 0.0 0.0 0.0 0.0" pbc="F F F"
O          0.12910       -2.08410        1.23470
H          0.10980       -1.44700        1.95800
C          0.36440       -3.37130        1.78130
H          1.25960       -3.39740        2.42150
H         -0.50120       -3.69520        2.38210
C          0.57170       -4.33140        0.62430
H          0.28700       -5.34300        0.93080
H         -0.07670       -4.03100       -0.21060
O          1.93050       -4.42430        0.24190
H          2.17690       -3.56090       -0.11490
