14
Properties=species:S:1:pos:R:3:forces:R:3 energy=-8266.82838404307 stress="0.0 0.0 0.0 0.0 0.0 0.0 0.0 0.0 0.0" pbc="F F F"
C          1.13390       -2.66650       -0.98840
H          1.94480       -2.01920       -1.33100
H          0.19950       -2.09000       -0.95670
H          1.00620       -3.48110       -1.70270
N          1.49690       -3.23850        0.30050
H          1.72880       -2.54360        0.99830
C          0.70240       -4.27250        0.77610
N          0.62930       -4.34460        2.15690
H          1.43670       -4.00180        2.65900
C         -0.00930       -5.51560        2.73380
H         -0.99190       -5.64210        2.27750
H         -0.13500       -5.35720        3.80730
H          0.56110       -6.43790        2.56550
O          0.08230       -5.02210        0.04080
