20
Properties=species:S:1:pos:R:3:forces:R:3 energy=-13476.225364009091 stress="0.0 0.0 0.0 0.0 0.0 0.0 0.0 0.0 0.0" pbc="F F F"
C         15.88410      -26.05410       -0.72020
H         15.36180      -26.73550       -1.38680
C         17.27100      -26.02640       -0.65170
H         17.86850      -26.68040       -1.28150
C         17.87680      -25.15500        0.24590
H         18.95710      -25.09960        0.34240
C         17.05960      -24.34930        1.03150
H         17.49320      -23.65790        1.75150
N         15.72670      -24.35190        0.96770
C         15.15500      -25.18500        0.09330
C         11.57370      -24.11900       -0.43310
H         11.00310      -23.27040       -0.80130
C         12.96190      -24.08170       -0.41420
H         13.51120      -23.20510       -0.74820
C         13.65660      -25.19990        0.05000
N         13.04890      -26.29460        0.51670
C         11.71450      -26.30740        0.50570
H         11.25120      -27.21410        0.88990
C         10.93110      -25.25750        0.03890
H          9.84790      -25.33420        0.05140
