16
Properties=species:S:1:pos:R:3:forces:R:3 energy=-11916.517526288642 stress="0.0 0.0 0.0 0.0 0.0 0.0 0.0 0.0 0.0" pbc="F F F"
C         12.42970       -3.51540       -1.19600
N         13.14030       -3.74080       -0.03120
H         12.98330       -3.12280        0.75260
C         14.44220       -5.90130        0.03550
H         13.65980       -6.64380        0.08510
C         15.85630       -6.12830        0.00860
H         16.36500       -7.08350        0.02800
C         16.43060       -4.90310       -0.04530
H         17.45470       -4.56130       -0.08280
O         15.48700       -3.93030       -0.05260
C         14.27400       -4.55590       -0.00550
O         12.65980       -4.12490       -2.21610
C         11.34930       -2.45960       -1.07400
H         10.64140       -2.70960       -0.27670
H         10.81550       -2.40120       -2.02260
H         11.78360       -1.47930       -0.84880
