15
Properties=species:S:1:pos:R:3:forces:R:3 energy=-5346.481363082297 stress="0.0 0.0 0.0 0.0 0.0 0.0 0.0 0.0 0.0" pbc="F F F"
C          4.52750       -1.37990        0.24760
H          5.59360       -1.13340        0.25720
H          4.08630       -0.98340        1.16860
C          3.85580       -0.79410       -0.99130
H          3.98280        0.29760       -1.00340
H          4.37480       -1.15050       -1.89060
C          2.38980       -1.11250       -1.13410
H          1.93910       -0.82520       -2.08840
C          1.60470       -1.67690       -0.21870
H          2.01680       -1.97960        0.74280
C          0.14220       -1.94690       -0.41260
H         -0.07880       -3.01690       -0.31390
H         -0.45870       -1.43080        0.34620
H          4.43550       -2.47130        0.26810
H         -0.19470       -1.61650       -1.40100
