14
Properties=species:S:1:pos:R:3:forces:R:3 energy=-10306.592948579888 stress="0.0 0.0 0.0 0.0 0.0 0.0 0.0 0.0 0.0" pbc="F F F"
O          4.83310      -11.88910       -0.33120
C          5.48640       -9.86080        0.75240
H          5.88390       -9.04270        0.13880
H          4.40980       -9.72290        0.86940
H          5.97910       -9.80820        1.72930
C          5.73480      -11.20210        0.09220
N          7.53580      -12.93120        0.02430
C          8.90160      -12.89450        0.00520
H          9.48610      -13.80530       -0.00080
C          9.35400      -11.60160       -0.00460
H         10.34670      -11.17610       -0.02140
N          8.22420      -10.82750        0.01670
H          8.19670       -9.82040       -0.01390
C          7.14930      -11.67520        0.01920
