10
Properties=species:S:1:pos:R:3:forces:R:3 energy=-6263.433575531197 stress="0.0 0.0 0.0 0.0 0.0 0.0 0.0 0.0 0.0" pbc="F F F"
O         -0.53870       -2.43310        0.93900
H         -0.02860       -2.16610        0.16380
C          0.21380       -3.41670        1.58460
H         -0.44190       -3.84730        2.35290
H          1.09970       -2.96800        2.06790
O          0.66260       -4.38950        0.67620
C          0.21520       -5.69860        0.95510
H          0.56670       -6.33520        0.14050
H         -0.88220       -5.74480        0.99820
H          0.61870       -6.07990        1.90490
