13
Properties=species:S:1:pos:R:3:forces:R:3 energy=-19635.25104996481 stress="0.0 0.0 0.0 0.0 0.0 0.0 0.0 0.0 0.0" pbc="F F F"
O         21.48770      -17.62120        1.12470
C         21.36330      -17.66380       -1.27660
H         21.41100      -18.62750       -1.79830
H         20.32190      -17.36790       -1.13490
H         21.88560      -16.93130       -1.90220
C         22.04240      -17.78200        0.06540
N         23.94280      -19.35480        0.04650
C         25.31780      -19.36940        0.01510
H         25.83110      -20.32230        0.02410
C         25.92080      -18.15030       -0.02160
H         26.97810      -17.92460       -0.04960
S         24.73200      -16.91160       -0.01550
C         23.50980      -18.13410        0.02880
