11
Properties=species:S:1:pos:R:3:forces:R:3 energy=-7301.210750065252 stress="0.0 0.0 0.0 0.0 0.0 0.0 0.0 0.0 0.0" pbc="F F F"
C          1.43340       -2.35420        1.58640
H          1.11720       -1.72110        2.41570
H          2.44650       -2.73190        1.75980
O          0.49410       -3.42850        1.54080
C          0.70450       -4.33690        0.56050
H          1.41770       -1.79260        0.64850
C          0.22210       -5.70480        0.97100
H         -0.81970       -5.65610        1.30120
H          0.31950       -6.39040        0.12960
O          1.27060       -4.07110       -0.47070
H          0.82440       -6.06730        1.81040
