16
Properties=species:S:1:pos:R:3:forces:R:3 energy=-9433.404172504192 stress="0.0 0.0 0.0 0.0 0.0 0.0 0.0 0.0 0.0" pbc="F F F"
C         -2.12740       -0.96060       -2.11870
H         -2.66380       -1.77810       -2.59480
C         -2.82770        0.03640       -1.44920
H         -3.91270        0.00530       -1.39840
C         -2.12510        1.07770       -0.84650
H         -2.66170        1.86550       -0.32340
C         -0.73900        1.12360       -0.91190
H         -0.17160        1.93220       -0.45970
C         -0.04190        0.11160       -1.57210
C         -0.73660       -0.93020       -2.18430
H         -0.19500       -1.70870       -2.71500
O          1.31750        0.24990       -1.66560
C          2.09120       -0.89800       -1.37220
H          3.12430       -0.55450       -1.28920
H          2.03390       -1.64890       -2.17170
H          1.78140       -1.35930       -0.42610
