21
Properties=species:S:1:pos:R:3:forces:R:3 energy=-15739.767108668459 stress="0.0 0.0 0.0 0.0 0.0 0.0 0.0 0.0 0.0" pbc="F F F"
C         21.75930      -34.00590        0.87070
H         22.25050      -34.65800        1.58630
C         20.37600      -33.90830        0.81910
H         19.75900      -34.48290        1.50380
C         19.79930      -33.07670       -0.13250
H         18.72200      -32.97360       -0.22100
C         20.64550      -32.36920       -0.97940
H         20.23640      -31.70440       -1.73760
N         21.97610      -32.43010       -0.92500
C         22.52520      -33.24530       -0.01680
C         26.17330      -32.19560        0.00480
H         26.74610      -31.27270        0.00740
C         24.78430      -32.14720       -0.01560
H         24.27190      -31.18980       -0.04440
C         24.01600      -33.31340        0.00090
C         24.70450      -34.52670       -0.01530
C         26.08850      -34.60380       -0.00680
H         26.56150      -35.58040       -0.00740
C         26.82520      -33.42560        0.01020
H         27.91030      -33.46990        0.02220
F         24.01190      -35.68190       -0.03310
