18
Properties=species:S:1:pos:R:3:forces:R:3 energy=-12979.571003049095 stress="0.0 0.0 0.0 0.0 0.0 0.0 0.0 0.0 0.0" pbc="F F F"
C         12.74160       -7.69040       -0.00420
H         13.31690       -6.76840       -0.01000
C         11.35410       -7.66960       -0.00170
H         10.81480       -6.72630        0.00000
C         10.66930       -8.87820        0.00290
H          9.58400       -8.91600        0.00880
C         11.41490      -10.05520        0.00230
H         10.91830      -11.02400        0.00970
N         12.74470      -10.09280       -0.00950
C         13.39660       -8.92440       -0.01790
C         15.77650       -8.18390        0.67670
H         15.55630       -7.32770        1.30070
C         17.06040       -8.74230        0.38560
H         18.02530       -8.39440        0.72840
C         16.82400       -9.81100       -0.41480
H         17.46080      -10.54470       -0.88660
O         15.49760       -9.96480       -0.63470
C         14.86770       -8.95570        0.01770
