21
Properties=species:S:1:pos:R:3:forces:R:3 energy=-15739.802607505395 stress="0.0 0.0 0.0 0.0 0.0 0.0 0.0 0.0 0.0" pbc="F F F"
C         21.66080      -34.26670       -0.40290
H         22.06640      -35.24480       -0.62180
C         20.29150      -34.04760       -0.43140
H         19.61620      -34.86640       -0.66440
C         19.79580      -32.78010       -0.15660
H         18.73110      -32.56930       -0.16460
C         20.71500      -31.77720        0.12500
H         20.37940      -30.76380        0.33860
N         22.03110      -31.96710        0.14500
C         22.50950      -33.19710       -0.09090
C         26.16570      -32.19910        0.03780
H         26.73380      -31.27340        0.07430
C         24.77890      -32.15440        0.01750
H         24.26480      -31.20050        0.03990
C         23.99960      -33.31800       -0.03380
C         24.70040      -34.52560       -0.04840
C         26.08350      -34.59970       -0.02940
H         26.55540      -35.57760       -0.04690
C         26.82250      -33.42480        0.01160
H         27.90730      -33.46800        0.02620
F         24.03880      -35.70490       -0.06230
