18
Properties=species:S:1:pos:R:3:forces:R:3 energy=-12979.734826657268 stress="0.0 0.0 0.0 0.0 0.0 0.0 0.0 0.0 0.0" pbc="F F F"
C         12.73000       -7.66730        0.00470
H         13.29200       -6.73880       -0.00020
C         11.34130       -7.67370        0.00310
H         10.78660       -6.73870        0.00220
C         10.67490       -8.89370       -0.00160
H          9.59000       -8.94550       -0.00560
C         11.43390      -10.05920       -0.00210
H         10.94960      -11.03420       -0.00670
N         12.76480      -10.07400        0.00570
C         13.39960       -8.89470        0.01110
C         15.72400       -9.96680        0.33260
H         15.43600      -10.97080        0.61630
C         17.03780       -9.41700        0.20550
H         17.97910       -9.92000        0.38040
C         16.87040       -8.12730       -0.18230
H         17.55660       -7.32260       -0.40230
O         15.55240       -7.83040       -0.30100
C         14.86360       -8.96740        0.00010
