18
Properties=species:S:1:pos:R:3:forces:R:3 energy=-10939.227143157197 stress="0.0 0.0 0.0 0.0 0.0 0.0 0.0 0.0 0.0" pbc="F F F"
C         -3.07810        1.25240       -2.31680
H         -4.12580        1.46970       -2.50500
C         -2.07460        2.13580       -2.69600
H         -2.31510        3.07210       -3.19510
C         -0.75430        1.79790       -2.42710
H          0.07430        2.43930       -2.71480
C         -0.48940        0.59450       -1.77540
N         -1.44660       -0.26830       -1.42170
C         -2.71010        0.06890       -1.68760
H         -3.46800       -0.65020       -1.37940
C          0.94350        0.19040       -1.49350
H          0.92680       -0.77320       -0.96770
H          1.44080        0.93360       -0.85840
O          1.72520        0.12210       -2.66660
C          1.32110       -0.91940       -3.52660
H          1.99070       -0.90000       -4.39010
H          0.28520       -0.78530       -3.86950
H          1.40010       -1.90090       -3.03340
