17
Properties=species:S:1:pos:R:3:forces:R:3 energy=-12849.714995964607 stress="0.0 0.0 0.0 0.0 0.0 0.0 0.0 0.0 0.0" pbc="F F F"
C         15.41880      -17.03330        0.07890
H         14.47380      -16.50470        0.12290
C         16.63000      -16.36630       -0.02400
H         16.67620      -15.27930       -0.06200
N         17.80320      -16.99660       -0.08650
C         17.74500      -18.32580       -0.05460
N         16.65120      -19.07640        0.08920
C         15.49380      -18.41740        0.13320
H         14.60100      -19.03290        0.22720
N         18.97730      -19.02210       -0.04470
H         18.93340      -19.83200        0.57130
C         19.64270      -19.42960       -1.21520
C         19.65580      -18.44630       -2.36570
H         19.89880      -17.43800       -2.01710
H         18.67900      -18.39640       -2.85640
H         20.40060      -18.78860       -3.08610
O         20.22960      -20.49040       -1.23600
