10
Properties=species:S:1:pos:R:3:forces:R:3 energy=-6263.346888825724 stress="0.0 0.0 0.0 0.0 0.0 0.0 0.0 0.0 0.0" pbc="F F F"
O         -0.55660       -3.82820        2.65090
H         -1.44020       -4.04370        2.32390
C          0.21640       -3.39600        1.56800
H          1.12270       -2.95900        2.00570
H         -0.30750       -2.61700        0.98900
O          0.61420       -4.40290        0.66970
C          0.20680       -5.73040        0.93570
H          0.77250       -6.35950        0.24580
H         -0.86780       -5.87460        0.75040
H          0.42290       -6.02180        1.97100
