17
Properties=species:S:1:pos:R:3:forces:R:3 energy=-12850.318451197205 stress="0.0 0.0 0.0 0.0 0.0 0.0 0.0 0.0 0.0" pbc="F F F"
C         15.74770      -21.96020       -0.00660
H         14.79810      -21.43480       -0.00990
C         15.80920      -23.35130       -0.00620
H         14.89790      -23.94400       -0.00690
C         17.03990      -23.98800        0.00090
H         17.14400      -25.06510        0.01500
C         18.18160      -23.17970        0.00260
N         18.14640      -21.84560       -0.00040
C         16.94580      -21.26150       -0.00200
H         16.95180      -20.17250       -0.00200
N         19.48090      -23.70260       -0.01710
H         20.17850      -22.97030       -0.01660
C         19.86890      -24.98090        0.36020
N         21.24320      -25.13440        0.37440
H         21.52230      -26.09850        0.48340
H         21.79280      -24.61550       -0.29540
O         19.10710      -25.87390        0.68030
