16
Properties=species:S:1:pos:R:3:forces:R:3 energy=-11916.485312607017 stress="0.0 0.0 0.0 0.0 0.0 0.0 0.0 0.0 0.0" pbc="F F F"
C         12.94210       -2.69310       -0.86500
N         13.22920       -3.65010        0.09370
H         12.58060       -3.75390        0.85970
C         14.44050       -5.85170        0.15170
H         13.63280       -6.55550        0.28520
C         15.83860       -6.14010        0.03110
H         16.31330       -7.11170        0.07450
C         16.45440       -4.94650       -0.14630
H         17.48580       -4.65150       -0.27390
O         15.54850       -3.93580       -0.14950
C         14.32980       -4.50460        0.02420
O         13.56510       -2.59860       -1.89760
C         11.76630       -1.80320       -0.50850
H         11.91190       -1.31910        0.46350
H         11.66700       -1.03900       -1.27950
H         10.83690       -2.38210       -0.46350
