23
Properties=species:S:1:pos:R:3:forces:R:3 energy=-24888.777654186688 stress="0.0 0.0 0.0 0.0 0.0 0.0 0.0 0.0 0.0" pbc="F F F"
C          3.39760       -2.98250       -1.92490
H          3.76020       -3.38460       -2.86630
C          2.25690       -2.18790       -1.90950
H          1.73560       -1.94280       -2.83180
C          1.80070       -1.67980       -0.69730
S          0.30040       -0.72790       -0.66360
N         -0.92010       -1.86380       -0.69070
C         -1.08330       -2.65390        0.52250
H         -1.10210       -1.98020        1.38040
H         -0.28650       -3.39970        0.66070
H         -2.04630       -3.16830        0.46650
C         -1.12690       -2.57510       -1.94410
H         -1.12630       -1.85550       -2.76440
H         -2.11050       -3.05090       -1.90400
H         -0.36770       -3.34790       -2.13400
C          2.47510       -1.93500        0.49150
H          2.10510       -1.50300        1.41720
C          3.61540       -2.73070        0.46580
H          4.14920       -2.93930        1.38890
C          4.07490       -3.25780       -0.73920
H          4.96630       -3.88010       -0.75500
O          0.21690        0.00860       -1.91390
O          0.22970       -0.06090        0.62510
