18
Properties=species:S:1:pos:R:3:forces:R:3 energy=-12876.05174698255 stress="0.0 0.0 0.0 0.0 0.0 0.0 0.0 0.0 0.0" pbc="F F F"
C         13.92200      -15.05220       -0.01540
H         14.48410      -14.12270       -0.02930
C         12.53380      -15.05930        0.01590
H         11.97760      -14.12590        0.03890
C         11.87200      -16.28070        0.01070
H         10.78750      -16.33860        0.03100
C         12.63670      -17.44250       -0.02660
H         12.15810      -18.42030       -0.03800
N         13.96880      -17.45420       -0.04850
C         14.59690      -16.27330       -0.03180
N         16.83500      -15.92540       -1.10620
C         18.12010      -16.22800       -0.72690
H         18.95950      -16.01220       -1.37430
C         18.13780      -16.81110        0.51050
H         18.93730      -17.18510        1.13360
N         16.82090      -16.86330        0.89850
H         16.44530      -17.30220        1.72590
C         16.08110      -16.30440       -0.10080
