14
Properties=species:S:1:pos:R:3:forces:R:3 energy=-10410.257804071365 stress="0.0 0.0 0.0 0.0 0.0 0.0 0.0 0.0 0.0" pbc="F F F"
O          4.56650       -3.06710        0.20070
C          3.55390       -5.20850       -0.14960
H          3.53410       -5.95700        0.65120
H          2.62560       -4.63510       -0.13320
H          3.63950       -5.74580       -1.10070
C          4.71790       -4.25940        0.03750
C          6.52660       -6.14000       -0.01840
H          5.91820       -7.03620       -0.03530
C          7.95190       -6.05800       -0.01560
H          8.66180       -6.87280       -0.02530
C          8.24340       -4.73140        0.00330
H          9.17300       -4.17940        0.01350
O          7.12080       -3.98900        0.01400
C          6.07130       -4.85390       -0.00890
