23
Properties=species:S:1:pos:R:3:forces:R:3 energy=-24888.670000736598 stress="0.0 0.0 0.0 0.0 0.0 0.0 0.0 0.0 0.0" pbc="F F F"
C          2.86640       -3.79730       -1.06170
H          2.85940       -4.82850       -1.40300
C          1.68940       -3.05490       -1.08840
H          0.76580       -3.49250       -1.45840
C          1.71510       -1.73160       -0.65580
S          0.25810       -0.70820       -0.64570
N         -0.97810       -1.84540       -0.68140
C         -1.25680       -2.44110        0.62380
H         -0.38260       -2.99500        0.97760
H         -1.53070       -1.68740        1.37200
H         -2.07830       -3.15260        0.49920
C         -2.17540       -1.40160       -1.39750
H         -1.87740       -1.00400       -2.36800
H         -2.81160       -2.27730       -1.55240
H         -2.73950       -0.63380       -0.84870
C          2.88750       -1.15330       -0.17870
H          2.86900       -0.12930        0.18400
C          4.05810       -1.90340       -0.15720
H          4.97880       -1.45780        0.20880
C          4.04810       -3.22440       -0.59820
H          4.96390       -3.81010       -0.57970
O          0.23430        0.00980        0.62350
O          0.19940        0.03470       -1.89840
