18
Properties=species:S:1:pos:R:3:forces:R:3 energy=-10939.181690975754 stress="0.0 0.0 0.0 0.0 0.0 0.0 0.0 0.0 0.0" pbc="F F F"
C         -3.09010        1.24710       -2.35260
H         -4.13660        1.45600       -2.55460
C         -2.08810        2.13790       -2.71820
H         -2.32930        3.07340       -3.21810
C         -0.76920        1.80890       -2.43360
H          0.05160        2.47410       -2.68850
C         -0.49970        0.59760       -1.79890
N         -1.46000       -0.25620       -1.42490
C         -2.72150        0.07050       -1.71110
H         -3.47920       -0.64970       -1.40630
C          0.92490        0.22570       -1.43690
H          0.96290       -0.86270       -1.29120
H          1.61470        0.50140       -2.24350
O          1.40090        0.89990       -0.29140
C          0.76640        0.49230        0.89880
H          1.29660        0.97480        1.72390
H         -0.29100        0.78980        0.92450
H          0.82060       -0.60010        1.02600
