19
Properties=species:S:1:pos:R:3:forces:R:3 energy=-12439.311900469542 stress="0.0 0.0 0.0 0.0 0.0 0.0 0.0 0.0 0.0" pbc="F F F"
C         21.36470      -34.87320        0.05850
H         21.96290      -33.96830        0.10970
C         19.97740      -34.82610        0.05690
H         19.45770      -33.87300        0.10820
C         19.27320      -36.02120       -0.00950
H         18.18710      -36.04240       -0.01290
C         19.99900      -37.20570       -0.07090
H         19.48600      -38.16410       -0.12190
N         21.33010      -37.26900       -0.07210
C         22.00300      -36.11350       -0.01350
C         24.37670      -36.15900       -1.06990
H         24.11890      -36.14290       -2.12070
C         25.68760      -36.16180       -0.51960
H         26.62000      -36.15340       -1.06840
C         25.55570      -36.17750        0.84570
H         26.29630      -36.18600        1.63390
N         24.21750      -36.18260        1.13870
H         23.82780      -36.20440        2.06830
C         23.48550      -36.17640       -0.02350
