11
Properties=species:S:1:pos:R:3:forces:R:3 energy=-7301.119958964678 stress="0.0 0.0 0.0 0.0 0.0 0.0 0.0 0.0 0.0" pbc="F F F"
C          1.55390       -2.48510        1.74700
H          1.19560       -1.79090        2.50770
H          2.46650       -2.98480        2.09210
O          0.49990       -3.42800        1.55570
C          0.70420       -4.33570        0.56680
H          1.76360       -1.95450        0.81400
C          0.22370       -5.70710        0.96620
H         -0.80930       -5.65850        1.32220
H          0.29970       -6.37970        0.11220
O          1.27310       -4.06720       -0.46100
H          0.84630       -6.08250        1.78490
