14
Properties=species:S:1:pos:R:3:forces:R:3 energy=-8266.865121160103 stress="0.0 0.0 0.0 0.0 0.0 0.0 0.0 0.0 0.0" pbc="F F F"
C          1.96640       -2.12460        1.07850
H          2.33090       -1.36280        0.38610
H          2.81010       -2.41840        1.71390
H          1.19340       -1.66920        1.71130
N          1.46850       -3.24050        0.30200
H          1.29840       -3.08070       -0.67900
C          0.64430       -4.23340        0.79030
N          0.63830       -4.37340        2.15900
H          1.42600       -3.99950        2.66510
C         -0.02340       -5.52540        2.73920
H         -0.94730       -5.70440        2.18800
H         -0.26490       -5.31660        3.78430
H          0.58490       -6.43780        2.68490
O         -0.03050       -4.93090        0.04700
