19
Properties=species:S:1:pos:R:3:forces:R:3 energy=-11976.90751320774 stress="0.0 0.0 0.0 0.0 0.0 0.0 0.0 0.0 0.0" pbc="F F F"
C         -0.12850        0.08730       -1.55710
N         -1.49500        0.09860       -1.15090
H         -2.16320        0.41190       -1.83960
C          0.84860        0.61900       -0.71870
H          0.55420        1.01760        0.24800
C          2.18050        0.62030       -1.12110
H          2.93790        1.04660       -0.46760
C          2.54720        0.07020       -2.34570
H          3.58980        0.06920       -2.65360
C          1.57270       -0.48300       -3.17100
H          1.84850       -0.91970       -4.12760
C          0.23740       -0.47610       -2.78080
H         -0.52110       -0.91080       -3.42850
C         -1.96590       -0.68050       -0.11520
C         -3.47920       -0.73540       -0.01280
H         -3.93550        0.24050       -0.20760
H         -3.88190       -1.45170       -0.73780
H         -3.74700       -1.07220        0.98880
O         -1.22550       -1.26160        0.65350
