22
Properties=species:S:1:pos:R:3:forces:R:3 energy=-15303.434747683536 stress="0.0 0.0 0.0 0.0 0.0 0.0 0.0 0.0 0.0" pbc="F F F"
C         12.85050      -32.99900        1.14270
H         13.41110      -32.73320        2.03660
C         11.46120      -32.96390        1.15930
H         10.94000      -32.66450        2.06490
C         10.74150      -33.29660        0.01490
H          9.65520      -33.26110        0.02380
C         11.42070      -33.67640       -1.13890
H         10.86670      -33.94050       -2.03540
C         12.80990      -33.73070       -1.14890
H         13.33640      -34.03660       -2.04870
C         13.54180      -33.38840       -0.00840
C         17.13080      -32.23730        0.46530
H         17.64990      -31.36370        0.84840
C         15.74150      -32.27380        0.47150
H         15.18400      -31.42010        0.84960
C         15.03100      -33.37340       -0.02070
C         15.79070      -34.44180       -0.49960
C         17.17610      -34.43920       -0.50660
H         17.70020      -35.30580       -0.89640
C         17.84980      -33.32430       -0.02240
H         18.93580      -33.30690       -0.02630
F         15.16410      -35.53800       -0.97260
