17
Properties=species:S:1:pos:R:3:forces:R:3 energy=-12850.171533054241 stress="0.0 0.0 0.0 0.0 0.0 0.0 0.0 0.0 0.0" pbc="F F F"
C         15.74020      -21.96500        0.01440
H         14.78770      -21.44420        0.03330
C         15.80620      -23.35670        0.02750
H         14.89840      -23.95380        0.05350
C         17.04380      -23.97800       -0.00580
H         17.15230      -25.05670       -0.01630
C         18.17740      -23.16390       -0.02760
N         18.13730      -21.83620       -0.04320
C         16.93100      -21.25750       -0.02340
H         16.93010      -20.16910       -0.03560
N         19.47020      -23.73110       -0.03440
H         20.16430      -23.03430        0.21510
C         19.85730      -24.58090       -1.07930
N         21.22530      -24.77120       -1.12790
H         21.49500      -25.51280       -1.75790
H         21.73700      -24.75150       -0.25730
O         19.08420      -25.08520       -1.86740
