18
Properties=species:S:1:pos:R:3:forces:R:3 energy=-8899.58041528091 stress="0.0 0.0 0.0 0.0 0.0 0.0 0.0 0.0 0.0" pbc="F F F"
C          2.84150       -3.26110        1.38740
H          3.80630       -2.85780        1.71340
H          3.01790       -4.09020        0.70350
H          2.31660       -3.64800        2.26460
C          2.05150       -2.14450        0.72080
H          2.05860       -1.26340        1.37770
H          2.56820       -1.83310       -0.20290
N          0.64410       -2.41410        0.40660
C         -0.11430       -1.19790        0.17590
H         -1.12780       -1.40980       -0.16140
H          0.37280       -0.58620       -0.59450
H         -0.17100       -0.59410        1.09200
C          0.11140       -3.67520        0.30200
C         -1.39930       -3.76230        0.15880
H         -1.72540       -3.39620       -0.82100
H         -1.92190       -3.19180        0.93210
H         -1.67080       -4.81490        0.24090
O          0.78180       -4.69760        0.31010
