14
Properties=species:S:1:pos:R:3:forces:R:3 energy=-8266.866970828489 stress="0.0 0.0 0.0 0.0 0.0 0.0 0.0 0.0 0.0" pbc="F F F"
C          1.73600       -3.16750       -1.11210
H          2.15660       -2.19190       -1.36750
H          2.44320       -3.95510       -1.40340
H          0.81580       -3.31500       -1.67880
N          1.41460       -3.18640        0.30610
H          2.17240       -2.90330        0.91290
C          0.66680       -4.25500        0.77420
N          0.76340       -4.45200        2.14080
H          0.95940       -3.62620        2.68930
C         -0.14630       -5.40750        2.74900
H         -0.08310       -6.35010        2.20390
H          0.15800       -5.57640        3.78460
H         -1.19200       -5.07520        2.72610
O          0.00280       -4.97230        0.04430
