20
Properties=species:S:1:pos:R:3:forces:R:3 energy=-13476.16220308174 stress="0.0 0.0 0.0 0.0 0.0 0.0 0.0 0.0 0.0" pbc="F F F"
C         12.94070      -24.06250       -0.43160
H         13.42630      -23.16450       -0.79960
C         11.55460      -24.12050       -0.40840
H         10.96640      -23.27460       -0.75550
C         10.93530      -25.27010        0.06280
H          9.85440      -25.36240        0.10020
C         11.74980      -26.31340        0.49090
H         11.31300      -27.23670        0.86930
N         13.07800      -26.27180        0.47440
C         13.67410      -25.16430        0.02050
C         17.30880      -24.15970       -0.39000
H         17.91070      -23.32190       -0.73330
C         15.92380      -24.08280       -0.42210
H         15.45290      -23.17830       -0.79320
C         15.17270      -25.17450        0.02520
N         15.75070      -26.29000        0.48290
C         17.07810      -26.34970        0.50790
H         17.49980      -27.27880        0.88900
C         17.90940      -25.31760        0.08500
H         18.98870      -25.42460        0.12930
