15
Properties=species:S:1:pos:R:3:forces:R:3 energy=-7830.432012300138 stress="0.0 0.0 0.0 0.0 0.0 0.0 0.0 0.0 0.0" pbc="F F F"
C          2.51270       -2.89640        2.02010
H          3.55470       -2.62240        2.21590
H          1.90850       -2.59090        2.88140
H          2.44310       -3.97980        1.91500
C          2.02750       -2.20300        0.74830
H          2.13560       -1.11840        0.83780
H          2.65380       -2.51840       -0.09630
N          0.63010       -2.45570        0.41310
H          0.00680       -1.66590        0.36740
C          0.07700       -3.69910        0.36190
C         -1.42710       -3.72580        0.15250
H         -1.85910       -2.74840       -0.08400
H         -1.64640       -4.42290       -0.65970
H         -1.90390       -4.11530        1.05720
O          0.72710       -4.72950        0.45040
