14
Properties=species:S:1:pos:R:3:forces:R:3 energy=-31478.20272024477 stress="0.0 0.0 0.0 0.0 0.0 0.0 0.0 0.0 0.0" pbc="F F F"
C          2.01920      -24.64170       -0.91710
H          0.97410      -24.67400       -1.19710
C          2.80190      -25.67220       -0.50160
H          2.47220      -26.69710       -0.39130
N          4.10450      -25.35730       -0.20400
C          4.30180      -24.09560       -0.41570
S          2.93800      -23.18720       -0.94030
S          5.88780      -23.29470       -0.19370
C          6.51260      -24.05900        1.28710
H          6.51900      -25.14210        1.14090
H          7.52830      -23.68190        1.42880
H          5.87870      -23.77310        2.12890
O          6.75000      -23.69620       -1.29700
O          5.60910      -21.89270        0.07500
