16
Properties=species:S:1:pos:R:3:forces:R:3 energy=-11916.60528236138 stress="0.0 0.0 0.0 0.0 0.0 0.0 0.0 0.0 0.0" pbc="F F F"
C         11.98170       -4.01550       -0.67430
N         13.19520       -3.69440       -0.09730
H         13.38550       -2.72130        0.09340
C         14.43040       -5.89160        0.04090
H         13.61870       -6.59860        0.10090
C         15.84540       -6.13030        0.07230
H         16.34260       -7.08540        0.17750
C         16.44280       -4.92320       -0.05550
H         17.47110       -4.59720       -0.08450
O         15.50050       -3.93510       -0.15870
C         14.29520       -4.55170       -0.11340
O         11.73690       -5.13000       -1.08600
C         10.99340       -2.86650       -0.72620
H         10.79380       -2.47400        0.27660
H         11.37480       -2.04420       -1.34190
H         10.06140       -3.23010       -1.15990
