11
Properties=species:S:1:pos:R:3:forces:R:3 energy=-5940.519475969502 stress="0.0 0.0 0.0 0.0 0.0 0.0 0.0 0.0 0.0" pbc="F F F"
F         13.25590      -26.48540       -0.00680
C         14.39440      -25.69110       -0.00200
H         14.34030      -25.07070        0.89980
H         14.35190      -25.03220       -0.87690
C         15.66610      -26.54690        0.00420
H         16.42060      -26.04780        0.62400
H         16.08190      -26.58030       -1.01000
C         15.42480      -27.97590        0.48400
H         15.03400      -27.99350        1.50660
H         14.69760      -28.47820       -0.15840
H         16.35400      -28.55420        0.46860
