14
Properties=species:S:1:pos:R:3:forces:R:3 energy=-8266.688714775655 stress="0.0 0.0 0.0 0.0 0.0 0.0 0.0 0.0 0.0" pbc="F F F"
C          0.90270       -2.39180       -0.73820
H          1.68700       -1.78580       -1.19920
H          0.11060       -1.72850       -0.36200
H          0.47350       -3.04670       -1.49940
N          1.49480       -3.22970        0.29830
H          1.91820       -2.67830        1.03350
C          0.70370       -4.27080        0.78200
N          0.61130       -4.33900        2.16190
H          1.39010       -3.96290        2.68480
C         -0.00570       -5.52310        2.73660
H         -0.95190       -5.70610        2.22640
H         -0.20050       -5.34330        3.79620
H          0.61640       -6.42060        2.62670
O          0.06850       -5.00630        0.04710
