10
Properties=species:S:1:pos:R:3:forces:R:3 energy=-6263.426707082974 stress="0.0 0.0 0.0 0.0 0.0 0.0 0.0 0.0 0.0" pbc="F F F"
O          1.27050       -2.62580        2.00390
H          1.73420       -2.34760        1.20410
C          0.20230       -3.41540        1.58210
H         -0.21090       -3.87730        2.48920
H         -0.57730       -2.79750        1.10000
O          0.63720       -4.38370        0.66090
C          0.21610       -5.69610        0.95570
H          0.68430       -6.35470        0.22110
H          0.53410       -6.00270        1.96280
H         -0.87640       -5.80700        0.88560
