15
Properties=species:S:1:pos:R:3:forces:R:3 energy=-5346.441207182703 stress="0.0 0.0 0.0 0.0 0.0 0.0 0.0 0.0 0.0" pbc="F F F"
C          4.03510        0.63390       -0.41040
H          5.09820        0.85990       -0.27510
H          3.54010        0.75280        0.55900
C          3.84020       -0.78410       -0.96130
H          4.28070       -1.50370       -0.25610
H          4.38930       -0.88660       -1.90500
C          2.38940       -1.13150       -1.17400
H          1.93380       -0.79210       -2.10680
C          1.61470       -1.69570       -0.24950
H          2.07660       -2.02860        0.68270
C          0.14080       -1.93730       -0.38670
H         -0.41760       -1.42070        0.40320
H         -0.09190       -3.00500       -0.29690
H          3.61600        1.38090       -1.09400
H         -0.23540       -1.58700       -1.35370
