15
Properties=species:S:1:pos:R:3:forces:R:3 energy=-5346.48478776572 stress="0.0 0.0 0.0 0.0 0.0 0.0 0.0 0.0 0.0" pbc="F F F"
C          4.10380        0.71300       -0.88760
H          5.17380        0.92010       -0.77900
H          3.58730        1.15970       -0.03180
C          3.84060       -0.79340       -0.96990
H          4.19930       -1.28360       -0.05440
H          4.42040       -1.21180       -1.80320
C          2.38410       -1.11060       -1.16480
H          1.94770       -0.80000       -2.11750
C          1.60620       -1.66920       -0.24120
H          2.06230       -1.95220        0.71040
C          0.14120       -1.95320       -0.39560
H         -0.44400       -1.43730        0.37470
H         -0.06460       -3.02470       -0.28850
H          3.75570        1.22200       -1.79380
H         -0.22810       -1.63240       -1.37540
