22
Properties=species:S:1:pos:R:3:forces:R:3 energy=-13509.17489577301 stress="0.0 0.0 0.0 0.0 0.0 0.0 0.0 0.0 0.0" pbc="F F F"
C         21.48980      -15.36920        0.85190
H         21.98290      -14.56270        1.38970
C         20.10830      -15.37540        0.69560
H         19.51480      -14.56470        1.11050
C         19.48890      -16.41500        0.00780
H         18.40860      -16.41860       -0.11600
C         20.25410      -17.45090       -0.51980
H         19.77420      -18.26560       -1.05660
C         21.63600      -17.44790       -0.36140
H         22.24310      -18.25350       -0.76750
C         22.26310      -16.40750        0.32570
N         24.43450      -17.08870        1.33970
C         25.74310      -16.73000        1.12830
H         26.54440      -17.15380        1.71940
C         25.83220      -15.81470        0.11850
H         26.66790      -15.30250       -0.33760
N         24.54160      -15.60150       -0.30720
C         23.73980      -16.39450        0.46680
C         24.13210      -14.70850       -1.37550
H         24.13520      -13.66400       -1.04480
H         24.81410      -14.82050       -2.22250
H         23.12670      -14.97830       -1.70190
