22
Properties=species:S:1:pos:R:3:forces:R:3 energy=-13046.177417170298 stress="0.0 0.0 0.0 0.0 0.0 0.0 0.0 0.0 0.0" pbc="F F F"
C          3.97130       -2.05290       -1.81570
H          4.96210       -1.94920       -2.25170
C          3.20580       -0.92150       -1.56090
H          3.57650        0.07000       -1.80800
C          1.94340       -1.04360       -0.97910
C          1.14320        0.21220       -0.74790
C          1.42920       -2.31290       -0.70980
H          0.43240       -2.41200       -0.28700
C          2.19040       -3.44640       -0.98020
H          1.79060       -4.43010       -0.75420
C          3.46560       -3.31750       -1.52340
H          4.06190       -4.20350       -1.72630
N          0.53570        0.35920        0.47440
C         -0.28740        1.53870        0.66440
H         -0.63070        1.88770       -0.30910
H         -1.14650        1.28940        1.29510
H          0.27650        2.34990        1.14690
C          0.96480       -0.29440        1.69560
H          0.09170       -0.67880        2.23570
H          1.64130       -1.12210        1.48640
H          1.48650        0.41340        2.35520
O          1.06100        1.07160       -1.61420
