15
Properties=species:S:1:pos:R:3:forces:R:3 energy=-7830.49470206859 stress="0.0 0.0 0.0 0.0 0.0 0.0 0.0 0.0 0.0" pbc="F F F"
C          2.64590       -1.63380       -0.91290
H          3.73080       -1.51410       -0.82040
H          2.22490       -0.66320       -1.19960
H          2.44770       -2.34680       -1.71950
C          2.04970       -2.13610        0.39870
H          2.23270       -1.41400        1.20360
H          2.50930       -3.08260        0.68890
N          0.62680       -2.40200        0.30740
H         -0.00780       -1.62660        0.20020
C          0.11680       -3.66850        0.34450
C         -1.39180       -3.74790        0.20370
H         -1.73360       -4.68160        0.65190
H         -1.66650       -3.75740       -0.85720
H         -1.90140       -2.90420        0.68080
O          0.82040       -4.65790        0.46620
