18
Properties=species:S:1:pos:R:3:forces:R:3 energy=-6416.011129869705 stress="0.0 0.0 0.0 0.0 0.0 0.0 0.0 0.0 0.0" pbc="F F F"
C          4.89840       -1.33310       -0.00380
H          4.49490       -2.10840        0.65690
H          5.25060       -0.50360        0.61870
C          3.82650       -0.87030       -0.99250
H          2.96550       -0.52310       -0.40460
C          3.33960       -2.03060       -1.86830
H          2.97030       -2.85660       -1.25020
H          4.15600       -2.41200       -2.49150
H          2.52960       -1.71150       -2.53280
C          4.25620        0.29650       -1.85200
H          3.43620        0.90790       -2.23960
C          5.49700        0.57470       -2.24530
H          6.32770       -0.02090       -1.87040
C          5.86920        1.68160       -3.18540
H          6.37110        1.28430       -4.07550
H          6.56850        2.37990       -2.71040
H          5.76360       -1.76430       -0.52130
H          4.99100        2.24800       -3.51290
