22
Properties=species:S:1:pos:R:3:forces:R:3 energy=-15303.3797309735 stress="0.0 0.0 0.0 0.0 0.0 0.0 0.0 0.0 0.0" pbc="F F F"
C         12.86460      -33.37160        1.21290
H         13.43320      -33.36980        2.14080
C         11.47430      -33.35740        1.24420
H         10.95530      -33.35060        2.19880
C         10.75100      -33.34030        0.05490
H          9.66400      -33.32350        0.07840
C         11.42370      -33.34370       -1.16370
H         10.86440      -33.32960       -2.09510
C         12.81390      -33.37040       -1.19320
H         13.34440      -33.38870       -2.14210
C         13.54770      -33.39530       -0.00550
C         17.13810      -32.23750        0.46810
H         17.66700      -31.37110        0.85400
C         15.74760      -32.25780        0.46760
H         15.19170      -31.40900        0.85860
C         15.03570      -33.34960       -0.03590
C         15.78100      -34.43130       -0.50240
C         17.16620      -34.44380       -0.50270
H         17.68490      -35.31590       -0.88670
C         17.84690      -33.33310       -0.01620
H         18.93330      -33.32660       -0.01430
F         15.12970      -35.50470       -0.98510
