19
Properties=species:S:1:pos:R:3:forces:R:3 energy=-12439.884099103532 stress="0.0 0.0 0.0 0.0 0.0 0.0 0.0 0.0 0.0" pbc="F F F"
C          5.59190      -15.06620        0.01770
H          6.10610      -14.10690        0.00240
C          4.20240      -15.08980        0.01580
H          3.64880      -14.15430        0.02020
C          3.52320      -16.30580        0.00990
H          2.43670      -16.32390        0.01110
C          4.24120      -17.49890       -0.00400
H          3.71630      -18.45050       -0.01630
C          5.62950      -17.47740       -0.00630
H          6.20570      -18.39860       -0.03200
C          6.31720      -16.26090        0.01880
N          8.53810      -17.29760       -0.33730
C          9.83310      -16.87540       -0.18520
H         10.66830      -17.52360       -0.41600
C          9.87130      -15.59150        0.27960
H         10.68710      -14.92770        0.52390
N          8.55450      -15.21580        0.40280
H          8.22010      -14.35630        0.80830
C          7.78710      -16.27720        0.01680
