19
Properties=species:S:1:pos:R:3:forces:R:3 energy=-12439.495966569935 stress="0.0 0.0 0.0 0.0 0.0 0.0 0.0 0.0 0.0" pbc="F F F"
C         21.31260      -34.79870       -0.01080
H         21.83830      -33.84730       -0.03460
C         19.92490      -34.83280       -0.01060
H         19.35430      -33.90760       -0.01560
C         19.28270      -36.06500        0.00090
H         18.19960      -36.14220        0.00600
C         20.07190      -37.21020       -0.00020
H         19.61310      -38.19710        0.00280
N         21.40240      -37.19570       -0.01030
C         22.01870      -36.00690       -0.00310
C         24.33290      -37.00190       -0.50390
H         24.00670      -37.92550       -0.96380
C         25.66080      -36.54870       -0.29910
H         26.57150      -37.05820       -0.58450
C         25.58500      -35.33420        0.33870
H         26.36320      -34.66310        0.67370
N         24.26180      -35.03000        0.51060
H         23.91350      -34.25310        1.04830
C         23.48550      -36.05250        0.01660
