21
Properties=species:S:1:pos:R:3:forces:R:3 energy=-13945.446621401734 stress="0.0 0.0 0.0 0.0 0.0 0.0 0.0 0.0 0.0" pbc="F F F"
C         29.16290      -17.06770       -1.49870
H         29.63910      -17.64560       -2.28440
C         27.78190      -17.07350       -1.35660
H         27.16580      -17.67820       -2.01550
C         27.21190      -16.29830       -0.35580
H         26.13810      -16.27260       -0.19790
C         28.06070      -15.53550        0.44140
H         27.65840      -14.90200        1.23000
N         29.38410      -15.50830        0.30590
C         29.93280      -16.28510       -0.63000
N         32.13420      -15.13660       -0.64430
C         33.42340      -15.53120       -0.87110
H         34.23910      -14.82030       -0.85840
C         33.48130      -16.88040       -1.08550
H         34.29880      -17.55820       -1.28540
N         32.18800      -17.33210       -0.99490
C         31.41150      -16.23070       -0.74240
C         31.80240      -18.73060       -1.05140
H         32.60200      -19.33510       -0.61620
H         31.63500      -19.06630       -2.08100
H         30.89440      -18.88810       -0.46620
