16
Properties=species:S:1:pos:R:3:forces:R:3 energy=-10906.793914787888 stress="0.0 0.0 0.0 0.0 0.0 0.0 0.0 0.0 0.0" pbc="F F F"
C          7.54160      -21.30640        0.17470
H          6.64050      -20.70730        0.26710
C          7.51170      -22.68800        0.30560
H          6.57900      -23.20900        0.50420
C          8.69890      -23.39650        0.16990
H          8.71230      -24.47910        0.25610
C          9.87510      -22.68990       -0.07880
N          9.91510      -21.35940       -0.20300
C          8.76840      -20.69700       -0.08310
H          8.83560      -19.61610       -0.19490
C         11.19680      -23.41150       -0.23690
O         12.23790      -22.87070        0.05480
C         11.15420      -24.82270       -0.79170
H         10.79050      -25.52010       -0.02690
H         10.47910      -24.89180       -1.65070
H         12.16450      -25.11630       -1.08350
