21
Properties=species:S:1:pos:R:3:forces:R:3 energy=-13945.763483879638 stress="0.0 0.0 0.0 0.0 0.0 0.0 0.0 0.0 0.0" pbc="F F F"
C         29.17480      -17.06220       -1.50670
H         29.67820      -17.65960       -2.26190
C         27.79860      -17.09410       -1.34170
H         27.18380      -17.72200       -1.98150
C         27.22040      -16.31620       -0.34570
H         26.14780      -16.31210       -0.17970
C         28.05850      -15.53580        0.44300
H         27.64590      -14.91340        1.23380
N         29.37980      -15.48780        0.29440
C         29.93090      -16.24020       -0.66760
N         32.03820      -17.07270       -1.61220
C         33.36000      -16.76680       -1.47720
H         34.13080      -17.30850       -2.01150
C         33.51950      -15.72480       -0.60570
H         34.39220      -15.20060       -0.24400
N         32.26100      -15.37740       -0.19010
C         31.39770      -16.22600       -0.82790
C         31.97300      -14.29650        0.74100
H         32.91420      -13.78970        0.96530
H         31.27360      -13.58920        0.29310
H         31.53050      -14.68290        1.66050
