16
Properties=species:S:1:pos:R:3:forces:R:3 energy=-20705.21733494758 stress="0.0 0.0 0.0 0.0 0.0 0.0 0.0 0.0 0.0" pbc="F F F"
C         28.28830       -5.35470       -0.39420
N         29.42920       -4.76980        0.12200
H         29.34670       -3.83730        0.49950
C         31.09420       -6.61120       -0.14990
H         30.37380       -7.39140       -0.35630
C         32.50880       -6.77880       -0.07800
H         33.00750       -7.73160       -0.21840
C         33.17040       -5.61980        0.18310
H         34.23610       -5.46690        0.28760
S         32.08400       -4.28390        0.35220
C         30.71830       -5.31860        0.05900
O         28.28610       -6.45370       -0.90780
C         27.04910       -4.49260       -0.25250
H         27.16060       -3.55220       -0.80340
H         26.19730       -5.04140       -0.65380
H         26.85780       -4.24840        0.79790
