14
Properties=species:S:1:pos:R:3:forces:R:3 energy=-4310.426699183214 stress="0.0 0.0 0.0 0.0 0.0 0.0 0.0 0.0 0.0" pbc="F F F"
C          1.18550       -3.25850        0.34370
H          1.63830       -2.88960       -0.58420
H          1.93350       -3.86840        0.86090
C          0.70150       -2.10290        1.21970
H          1.55500       -1.47680        1.51070
C         -0.37280       -1.22940        0.54030
H         -0.74970       -1.73980       -0.35550
H         -1.23650       -1.12150        1.20760
C          0.12870        0.16530        0.16550
H          0.96440        0.10910       -0.54200
H         -0.66160        0.76490       -0.29800
H          0.48220        0.70360        1.05230
H          0.30330       -2.51690        2.15400
H          0.35150       -3.91340        0.06670
