18
Properties=species:S:1:pos:R:3:forces:R:3 energy=-21768.213314396457 stress="0.0 0.0 0.0 0.0 0.0 0.0 0.0 0.0 0.0" pbc="F F F"
C         30.18590       -8.36290       -0.00230
H         30.75920       -7.44030       -0.00980
C         28.79800       -8.35080        0.01080
H         28.25470       -7.41020        0.01520
C         28.12130       -9.56520        0.01490
H         27.03610       -9.61000        0.02270
C         28.87160      -10.73490        0.00850
H         28.38060      -11.70600        0.01040
N         30.20540      -10.76550        0.00190
C         30.84770       -9.59400       -0.00400
C         33.14900      -10.06530        0.97970
H         32.75640      -10.48340        1.90030
C         34.53490       -9.89850        0.67960
H         35.34170      -10.16820        1.35280
C         34.73210       -9.36090       -0.55730
H         35.66990       -9.12760       -1.04490
S         33.24720       -9.04670       -1.36770
C         32.33190       -9.65330       -0.03200
