22
Properties=species:S:1:pos:R:3:forces:R:3 energy=-13509.227041742428 stress="0.0 0.0 0.0 0.0 0.0 0.0 0.0 0.0 0.0" pbc="F F F"
C         21.48120      -15.39100        0.84460
H         21.96520      -14.58160        1.38710
C         20.09960      -15.40750        0.69570
H         19.50170      -14.60780        1.12290
C         19.48720      -16.44200       -0.00590
H         18.40720      -16.45340       -0.12760
C         20.26210      -17.46350       -0.54860
H         19.78750      -18.27480       -1.09480
C         21.64350      -17.45380       -0.39120
H         22.25030      -18.25660       -0.80330
C         22.26480      -16.41620        0.30510
N         24.46040      -17.34080        1.01220
C         25.74910      -16.87350        0.99040
H         26.56340      -17.44950        1.41000
C         25.80440      -15.64730        0.39080
H         26.61880      -14.96860        0.18060
N         24.51070      -15.34710        0.03400
C         23.73880      -16.40210        0.43720
C         24.08620      -14.14270       -0.65270
H         24.82530      -13.88510       -1.41510
H         23.97810      -13.29840        0.03780
H         23.12930      -14.32680       -1.14470
