11
Properties=species:S:1:pos:R:3:forces:R:3 energy=-7300.924995747352 stress="0.0 0.0 0.0 0.0 0.0 0.0 0.0 0.0 0.0" pbc="F F F"
C          1.58790       -2.74410        2.06490
H          1.20240       -1.90590        2.64690
H          2.15400       -3.41960        2.72010
O          0.44750       -3.39560        1.51020
C          0.72370       -4.34510        0.56490
H          2.24040       -2.37990        1.26500
C          0.21790       -5.70710        0.96090
H         -0.82570       -5.64500        1.28100
H          0.32300       -6.39130        0.11890
O          1.36660       -4.10840       -0.42420
H          0.80910       -6.07610        1.80550
