13
Properties=species:S:1:pos:R:3:forces:R:3 energy=-19635.34415425069 stress="0.0 0.0 0.0 0.0 0.0 0.0 0.0 0.0 0.0" pbc="F F F"
O         21.65050      -17.01370       -0.98060
C         21.18550      -18.34230        0.96990
H         21.31920      -19.42990        0.99480
H         20.14000      -18.08910        0.78580
H         21.50290      -17.95790        1.94580
C         22.04980      -17.75890       -0.11820
N         23.93530      -19.34730       -0.06090
C         25.30780      -19.37470       -0.02630
H         25.81570      -20.33060       -0.05120
C         25.91760      -18.15980        0.03740
H         26.97670      -17.94460        0.07570
S         24.73980      -16.91100        0.04620
C         23.50910      -18.12240       -0.02200
