13
Properties=species:S:1:pos:R:3:forces:R:3 energy=-10846.827403494335 stress="0.0 0.0 0.0 0.0 0.0 0.0 0.0 0.0 0.0" pbc="F F F"
O          4.75040      -16.41450        0.68620
C          3.92900      -18.22780       -0.66160
H          4.11830      -18.15790       -1.73910
H          2.94000      -17.82900       -0.43000
H          3.99050      -19.28860       -0.39340
C          4.97250      -17.44390        0.09160
N          6.74120      -19.22400        0.03320
C          8.12440      -19.16390        0.01810
H          8.73730      -20.05440        0.02920
C          8.50730      -17.86670       -0.00700
H          9.45320      -17.34760       -0.02330
O          7.38790      -17.09750       -0.00360
C          6.37000      -17.98310        0.00200
