22
Properties=species:S:1:pos:R:3:forces:R:3 energy=-13046.117855568009 stress="0.0 0.0 0.0 0.0 0.0 0.0 0.0 0.0 0.0" pbc="F F F"
C          4.01580       -2.09750       -1.72340
H          5.03990       -2.02170       -2.07770
C          3.29350       -0.93710       -1.46330
H          3.74740        0.02790       -1.67290
C          1.98600       -1.01790       -0.97830
C          1.10090        0.17740       -0.74190
C          1.38820       -2.27220       -0.84080
H          0.35140       -2.31960       -0.52020
C          2.11440       -3.43060       -1.08610
H          1.64630       -4.40170       -0.94570
C          3.43460       -3.34620       -1.52080
H          4.00410       -4.25080       -1.71620
N          1.68070        1.42560       -0.65830
C          0.76640        2.55310       -0.71960
H         -0.03560        2.33160       -1.42390
H          1.31250        3.44080       -1.05110
H          0.31140        2.76260        0.26010
C          2.88170        1.69450        0.11630
H          3.55170        2.35470       -0.44770
H          3.40870        0.77390        0.37170
H          2.63150        2.20550        1.05750
O         -0.11420        0.04420       -0.70150
