18
Properties=species:S:1:pos:R:3:forces:R:3 energy=-8899.747433121167 stress="0.0 0.0 0.0 0.0 0.0 0.0 0.0 0.0 0.0" pbc="F F F"
C          2.73650       -1.13010       -0.03260
H          3.82890       -1.19330       -0.00950
H          2.42620       -1.00190       -1.07550
H          2.44790       -0.23570        0.52990
C          2.12610       -2.38910        0.56060
H          2.37590       -2.46230        1.63170
H          2.52350       -3.28630        0.08330
N          0.67780       -2.43910        0.38670
C         -0.06480       -1.23050        0.68630
H         -1.13750       -1.41590        0.66380
H          0.19120       -0.84120        1.68200
H          0.15680       -0.44790       -0.04720
C          0.10860       -3.68290        0.27720
C         -1.40430       -3.75160        0.18930
H         -1.87260       -3.44540        1.13040
H         -1.79400       -3.11700       -0.61230
H         -1.67040       -4.78920       -0.01260
O          0.78730       -4.69830        0.23230
