21
Properties=species:S:1:pos:R:3:forces:R:3 energy=-15739.699142741352 stress="0.0 0.0 0.0 0.0 0.0 0.0 0.0 0.0 0.0" pbc="F F F"
C         21.85340      -32.32440       -0.76750
H         22.41620      -31.66950       -1.42730
C         20.46940      -32.25110       -0.71010
H         19.93150      -31.52310       -1.31210
C         19.78840      -33.11480        0.13910
H         18.70690      -33.09130        0.22800
C         20.53730      -34.02580        0.87650
H         20.04540      -34.72550        1.54950
N         21.86400      -34.12320        0.81430
C         22.52000      -33.27300        0.01780
C         26.15890      -32.19220       -0.02240
H         26.71620      -31.26030       -0.04130
C         24.76950      -32.16850       -0.03200
H         24.25700      -31.20940       -0.04120
C         24.01240      -33.34290       -0.00250
C         24.71610      -34.54860        0.02490
C         26.10290      -34.59760        0.02540
H         26.58830      -35.56780        0.04460
C         26.82630      -33.41230        0.00460
H         27.91180      -33.44460        0.00840
F         24.05660      -35.71280        0.02240
