18
Properties=species:S:1:pos:R:3:forces:R:3 energy=-6416.019915059204 stress="0.0 0.0 0.0 0.0 0.0 0.0 0.0 0.0 0.0" pbc="F F F"
C          4.59070       -1.89070       -0.06610
H          5.64120       -1.60130        0.04030
H          4.56070       -2.86940       -0.55720
C          3.83520       -0.83600       -0.88090
H          4.34450       -0.70690       -1.84450
H          3.91570        0.14010       -0.37880
C          2.36960       -1.12350       -1.15340
C          1.88420       -0.69100       -2.51690
H          2.00720        0.39230       -2.64940
H          0.83340       -0.92900       -2.69240
H          2.47230       -1.17960       -3.30380
C          1.58150       -1.65930       -0.21820
H          2.02260       -1.90600        0.74670
C          0.11840       -1.96880       -0.31730
H         -0.44710       -1.41230        0.44060
H         -0.06390       -3.03290       -0.12260
H          4.18370       -2.00620        0.94390
H         -0.30700       -1.72990       -1.29400
