16
Properties=species:S:1:pos:R:3:forces:R:3 energy=-11813.12993625137 stress="0.0 0.0 0.0 0.0 0.0 0.0 0.0 0.0 0.0" pbc="F F F"
C         12.80040      -10.34720       -1.14860
N         13.48790      -10.70380        0.00130
H         12.88920      -10.77150        0.81550
N         14.77620      -12.75910        0.09270
C         16.12520      -13.00480        0.05680
H         16.50900      -14.01700        0.10050
C         16.83510      -11.84260       -0.02460
H         17.89670      -11.63950       -0.06640
N         15.88570      -10.84780       -0.05260
H         16.04640       -9.85280       -0.01500
C         14.66890      -11.45700        0.01950
O         11.65570       -9.95060       -1.07380
C         13.56530      -10.44210       -2.45040
H         14.31580       -9.64670       -2.50590
H         12.85430      -10.31010       -3.26710
H         14.08890      -11.39690       -2.55310
