23
Properties=species:S:1:pos:R:3:forces:R:3 energy=-24888.70321719569 stress="0.0 0.0 0.0 0.0 0.0 0.0 0.0 0.0 0.0" pbc="F F F"
C          3.99820       -1.97240       -1.39270
H          4.87850       -1.59210       -1.90300
C          2.82440       -1.22720       -1.39020
H          2.75700       -0.26840       -1.89720
C          1.70260       -1.72960       -0.73930
S          0.25500       -0.70030       -0.69260
N         -0.97550       -1.84650       -0.65760
C         -1.18120       -2.51550       -1.93960
H         -0.28570       -3.08170       -2.21190
H         -1.42280       -1.80970       -2.74410
H         -2.00190       -3.22850       -1.81780
C         -2.21100       -1.35140       -0.04860
H         -1.97280       -0.90170        0.91610
H         -2.86760       -2.21050        0.11430
H         -2.72880       -0.61160       -0.67610
C          1.73430       -2.95550       -0.08010
H          0.84580       -3.32880        0.42380
C          2.91520       -3.69190       -0.08740
H          2.95490       -4.65230        0.41860
C          4.04350       -3.20370       -0.74250
H          4.96230       -3.78490       -0.74510
O          0.20440        0.04150       -1.94710
O          0.21600        0.01850        0.57470
