18
Properties=species:S:1:pos:R:3:forces:R:3 energy=-10939.148715360043 stress="0.0 0.0 0.0 0.0 0.0 0.0 0.0 0.0 0.0" pbc="F F F"
C         -3.08500        1.23690       -2.33950
H         -4.13360        1.44220       -2.53570
C         -2.08980        2.13630       -2.69850
H         -2.33750        3.07600       -3.18730
C         -0.76750        1.81010       -2.42110
H          0.04840        2.48150       -2.67780
C         -0.49210        0.59700       -1.79120
N         -1.44330       -0.27160       -1.43820
C         -2.70730        0.05210       -1.71690
H         -3.45860       -0.68000       -1.42300
C          0.93260        0.19240       -1.46960
H          1.60810        1.02740       -1.71700
H          1.21220       -0.66640       -2.08780
O          1.11580       -0.22660       -0.14230
C          0.90240        0.80280        0.79450
H          1.13640        0.39160        1.77990
H         -0.14310        1.14390        0.78910
H          1.55530        1.67000        0.60450
