16
Properties=species:S:1:pos:R:3:forces:R:3 energy=-10906.794303224655 stress="0.0 0.0 0.0 0.0 0.0 0.0 0.0 0.0 0.0" pbc="F F F"
C          7.55070      -21.30780        0.18130
H          6.65080      -20.70740        0.27970
C          7.51590      -22.69110        0.31300
H          6.58180      -23.20650        0.52160
C          8.70270      -23.40240        0.18390
H          8.74340      -24.48090        0.30730
C          9.86740      -22.69470       -0.09970
N          9.92050      -21.36650       -0.21850
C          8.77420      -20.69750       -0.07660
H          8.84220      -19.61650       -0.18100
C         11.19370      -23.41930       -0.21170
O         11.66800      -24.00240        0.73730
C         11.80930      -23.42590       -1.58880
H         11.16370      -23.96880       -2.28930
H         11.89230      -22.39750       -1.95970
H         12.79500      -23.89310       -1.54930
