14
Properties=species:S:1:pos:R:3:forces:R:3 energy=-10306.564293313673 stress="0.0 0.0 0.0 0.0 0.0 0.0 0.0 0.0 0.0" pbc="F F F"
O          4.84040      -11.80980       -0.43210
C          5.47920       -9.98220        0.97270
H          5.90470       -9.08440        0.50730
H          4.40140       -9.84640        1.08190
H          5.94830      -10.09180        1.95630
C          5.73380      -11.20720        0.11790
N          7.53720      -12.93790        0.02980
C          8.90420      -12.89660        0.00440
H          9.49150      -13.80580       -0.00260
C          9.35210      -11.60250       -0.00940
H         10.34310      -11.17330       -0.03230
N          8.21900      -10.83200        0.01690
H          8.18430       -9.82530       -0.02180
C          7.14840      -11.68330        0.02240
