16
Properties=species:S:1:pos:R:3:forces:R:3 energy=-20705.153555479195 stress="0.0 0.0 0.0 0.0 0.0 0.0 0.0 0.0 0.0" pbc="F F F"
C         28.48550       -4.97270       -0.97510
N         29.47080       -4.77240       -0.02080
H         29.18700       -4.13700        0.71490
C         31.16030       -6.60210       -0.14080
H         30.46230       -7.41500       -0.30380
C         32.57180       -6.76260       -0.03380
H         33.08050       -7.71670       -0.12460
C         33.21520       -5.58760        0.19710
H         34.27680       -5.41870        0.31950
S         32.11790       -4.25980        0.29980
C         30.76150       -5.30690        0.00770
O         27.38690       -4.48240       -0.81410
C         28.85330       -5.78400       -2.19490
H         29.91520       -5.71020       -2.44430
H         28.24420       -5.42950       -3.02780
H         28.60560       -6.83960       -2.03270
