14
Properties=species:S:1:pos:R:3:forces:R:3 energy=-8266.548382619676 stress="0.0 0.0 0.0 0.0 0.0 0.0 0.0 0.0 0.0" pbc="F F F"
C          0.75410       -1.96680        0.03150
H          1.47380       -1.28110       -0.42410
H         -0.12220       -2.05230       -0.62690
H          0.43450       -1.52410        0.98080
N          1.42480       -3.25280        0.27780
H          1.73930       -3.57830       -0.63350
C          0.52130       -4.24660        0.77130
N          0.61210       -4.39320        2.12370
H          1.38240       -3.90850        2.55880
C          0.00090       -5.51690        2.79830
H          0.70820       -6.33970        2.96570
H         -0.40860       -5.19990        3.76160
H         -0.81150       -5.88510        2.16970
O         -0.22600       -4.88020        0.04850
