16
Properties=species:S:1:pos:R:3:forces:R:3 energy=-9433.482408777987 stress="0.0 0.0 0.0 0.0 0.0 0.0 0.0 0.0 0.0" pbc="F F F"
C         -2.11480        1.07100       -0.83920
H         -2.65010        1.85190       -0.30470
C         -2.82040        0.02890       -1.44000
H         -3.90450       -0.00710       -1.37730
C         -2.12240       -0.96260       -2.11550
H         -2.65900       -1.78520       -2.58370
C         -0.73070       -0.92700       -2.19900
H         -0.20130       -1.71860       -2.72010
C         -0.03540        0.12710       -1.60780
C         -0.73190        1.12340       -0.91790
H         -0.16330        1.93000       -0.46360
O          1.31880        0.27010       -1.65650
C          2.08370       -0.88090       -1.94300
H          3.12400       -0.60760       -1.75910
H          1.80470       -1.72160       -1.29500
H          1.97330       -1.18600       -2.99230
