16
Properties=species:S:1:pos:R:3:forces:R:3 energy=-10907.084221330362 stress="0.0 0.0 0.0 0.0 0.0 0.0 0.0 0.0 0.0" pbc="F F F"
C          7.54520      -21.30760        0.18260
H          6.64070      -20.71520        0.28640
C          7.52100      -22.69240        0.31810
H          6.59110      -23.21260        0.53180
C          8.70580      -23.40040        0.17570
H          8.75390      -24.48080        0.26960
C          9.87120      -22.68480       -0.09820
N          9.90700      -21.35750       -0.23030
C          8.76060      -20.69140       -0.09070
H          8.81950      -19.61000       -0.20360
C         11.17430      -23.43090       -0.25790
O         11.19270      -24.64030       -0.14650
C         12.40830      -22.61710       -0.55330
H         12.26890      -22.04560       -1.47650
H         12.57310      -21.88320        0.24210
H         13.26560      -23.28460       -0.64200
