15
Properties=species:S:1:pos:R:3:forces:R:3 energy=-12353.402809026722 stress="0.0 0.0 0.0 0.0 0.0 0.0 0.0 0.0 0.0" pbc="F F F"
C         12.25340      -15.70520        0.00380
N         12.51950      -17.07660       -0.00230
H         11.68240      -17.64360       -0.00880
N         13.78670      -19.07920       -0.00760
C         15.15880      -19.30190       -0.00300
H         15.57070      -20.30100       -0.00660
C         15.81730      -18.13010        0.00590
H         16.85280      -17.82920        0.01190
O         14.86790      -17.12640        0.00730
C         13.69680      -17.78940       -0.00110
O         11.09210      -15.35550        0.00080
C         13.40280      -14.73140        0.01380
H         14.03440      -14.87360        0.89310
H         12.97260      -13.72960        0.01730
H         14.04170      -14.86430       -0.86170
