17
Properties=species:S:1:pos:R:3:forces:R:3 energy=-13416.11942743933 stress="0.0 0.0 0.0 0.0 0.0 0.0 0.0 0.0 0.0" pbc="F F F"
C         12.62180      -20.52750        0.00280
H         13.21200      -19.61590        0.01120
C         11.23320      -20.48960        0.02150
H         10.70610      -19.53940        0.04570
C         10.53360      -21.68900        0.00970
H          9.44750      -21.71070        0.02400
C         11.25790      -22.87700       -0.02160
H         10.74620      -23.83760       -0.03190
N         12.58960      -22.93260       -0.04090
C         13.24960      -21.77140       -0.03010
N         15.54000      -21.87280       -1.04580
C         16.80250      -21.90650       -0.47020
H         17.69890      -21.93720       -1.07370
C         16.67820      -21.89540        0.87400
H         17.35950      -21.91230        1.71090
O         15.34790      -21.85450        1.16890
C         14.73410      -21.84450       -0.03680
