17
Properties=species:S:1:pos:R:3:forces:R:3 energy=-11376.435310401106 stress="0.0 0.0 0.0 0.0 0.0 0.0 0.0 0.0 0.0" pbc="F F F"
O         19.60270      -10.00910       -0.14300
C         18.82270      -12.24940        0.17970
H         18.78970      -12.53370        1.23680
H         17.85040      -11.85530       -0.12020
H         19.07010      -13.15380       -0.38430
C         19.87550      -11.18960       -0.01200
N         21.66760      -12.91410       -0.01890
C         23.02910      -12.87970       -0.02470
H         23.62450      -13.78410       -0.03970
C         23.47040      -11.58280       -0.01110
H         24.46050      -11.14790       -0.01070
N         22.35300      -10.79770        0.00380
C         21.28510      -11.64790        0.00270
C         22.34420       -9.34400        0.01620
H         23.38170       -9.00450        0.05950
H         21.86330       -8.95620       -0.88190
H         21.80190       -8.97850        0.88820
