18
Properties=species:S:1:pos:R:3:forces:R:3 energy=-8899.714088012264 stress="0.0 0.0 0.0 0.0 0.0 0.0 0.0 0.0 0.0" pbc="F F F"
C          2.74510       -1.06530        0.49110
H          3.83560       -1.13910        0.54020
H          2.49820       -0.35930       -0.30870
H          2.39480       -0.65480        1.44470
C          2.14910       -2.43680        0.23480
H          2.48030       -3.15060        0.99380
H          2.50390       -2.82790       -0.72980
N          0.68670       -2.44330        0.25370
C         -0.02630       -1.23200       -0.10330
H         -1.09740       -1.36300        0.04160
H          0.29270       -0.40790        0.53970
H          0.15000       -0.93560       -1.14850
C          0.10670       -3.68580        0.24150
C         -1.40620       -3.75420        0.16020
H         -1.88170       -3.19500        0.97250
H         -1.77530       -3.35750       -0.79090
H         -1.68830       -4.80410        0.23820
O          0.78400       -4.70110        0.31130
