17
Properties=species:S:1:pos:R:3:forces:R:3 energy=-12849.94932305907 stress="0.0 0.0 0.0 0.0 0.0 0.0 0.0 0.0 0.0" pbc="F F F"
C         15.43510      -17.03410       -0.06000
H         14.48730      -16.51130       -0.10730
C         15.51930      -18.42100       -0.06640
H         14.62740      -19.04250       -0.11730
N         16.67700      -19.07370       -0.01840
C         17.77650      -18.31360        0.03320
N         17.82300      -16.98250        0.09120
C         16.64500      -16.36130        0.01860
H         16.68320      -15.27450        0.03950
N         18.98080      -19.02460        0.03610
H         18.84380      -19.97760       -0.28890
C         19.98290      -19.01990        1.01930
C         20.20910      -17.74310        1.78960
H         20.30170      -16.88610        1.11830
H         19.36770      -17.53580        2.45640
H         21.11780      -17.87190        2.37870
O         20.65460      -20.01860        1.17400
