14
Properties=species:S:1:pos:R:3:forces:R:3 energy=-9710.195904922033 stress="0.0 0.0 0.0 0.0 0.0 0.0 0.0 0.0 0.0" pbc="F F F"
C         -0.12830       -0.09230       -0.05310
H         -0.19390        0.40290       -1.02840
H         -0.24880        0.67960        0.71380
C          1.22670       -0.78900        0.06430
H          1.29980       -1.56440       -0.70980
H          1.28930       -1.30780        1.03020
C          2.39330        0.18410       -0.07420
H          2.36910        0.69210       -1.04530
H          3.35650       -0.32930        0.01020
H          2.35540        0.95470        0.70440
C         -1.31600       -1.03370        0.04030
H         -1.08150       -2.07760       -0.20010
F         -2.30020       -0.62620       -0.81580
F         -1.85320       -0.99800        1.29500
