22
Properties=species:S:1:pos:R:3:forces:R:3 energy=-15303.413483737359 stress="0.0 0.0 0.0 0.0 0.0 0.0 0.0 0.0 0.0" pbc="F F F"
C         12.83710      -32.68480        1.01380
H         13.38980      -32.21880        1.82620
C         11.44900      -32.63460        1.02470
H         10.93600      -32.11020        1.82700
C         10.72080      -33.24470        0.00800
H          9.63510      -33.20130        0.00850
C         11.39630      -33.91620       -1.00570
H         10.83840      -34.40360       -1.80080
C         12.78500      -33.98250       -1.00780
H         13.29500      -34.50960       -1.80730
C         13.52970      -33.34770       -0.00700
C         17.13820      -32.24800        0.47230
H         17.66010      -31.37740        0.85930
C         15.74990      -32.28230        0.49180
H         15.21170      -31.41580        0.86660
C         15.02230      -33.37830        0.00870
C         15.78330      -34.43130       -0.50700
C         17.16880      -34.42900       -0.53300
H         17.68450      -35.29080       -0.94490
C         17.85280      -33.32630       -0.03900
H         18.93840      -33.31000       -0.05600
F         15.16930      -35.53880       -0.97880
