20
Properties=species:S:1:pos:R:3:forces:R:3 energy=-13476.186452371432 stress="0.0 0.0 0.0 0.0 0.0 0.0 0.0 0.0 0.0" pbc="F F F"
C         15.89080      -24.34800       -0.83860
H         15.38930      -23.68710       -1.53930
C         17.27720      -24.38950       -0.80210
H         17.86260      -23.74540       -1.45350
C         17.89960      -25.26190        0.08120
H         18.98090      -25.32790        0.15110
C         17.09000      -26.06450        0.87910
H         17.53140      -26.77010        1.58170
N         15.76060      -26.04460        0.84610
C         15.16470      -25.18350        0.01600
C         11.55880      -24.11890       -0.41520
H         10.97570      -23.27370       -0.77230
C         12.94530      -24.07240       -0.43820
H         13.44920      -23.17750       -0.79100
C         13.66850      -25.17770        0.02130
N         13.06960      -26.26700        0.51170
C         11.74020      -26.30220        0.51610
H         11.29630      -27.21560        0.90970
C         10.93330      -25.26170        0.06590
H          9.85180      -25.34880        0.09970
