12
Properties=species:S:1:pos:R:3:forces:R:3 energy=-6760.7668690430755 stress="0.0 0.0 0.0 0.0 0.0 0.0 0.0 0.0 0.0" pbc="F F F"
C         -0.06350       -3.41550        2.75710
H         -0.41230       -2.44590        3.11800
H         -0.88330       -4.12910        2.87930
H          0.77460       -3.74150        3.39090
N          0.27900       -3.28790        1.35330
H          0.71130       -2.41720        1.07130
C          0.72430       -4.33100        0.57530
C          0.22000       -5.70920        0.95250
H         -0.87470       -5.73420        0.98650
H          0.57200       -6.41670        0.20170
H          0.59210       -6.01590        1.93610
O          1.42820       -4.13280       -0.39870
