12
Properties=species:S:1:pos:R:3:forces:R:3 energy=-6760.89057601384 stress="0.0 0.0 0.0 0.0 0.0 0.0 0.0 0.0 0.0" pbc="F F F"
C          0.78850       -1.95330        1.12270
H          0.38250       -1.29570        1.89350
H          0.43620       -1.61940        0.14180
H          1.88080       -1.88380        1.12830
N          0.35870       -3.30930        1.38880
H         -0.22160       -3.49870        2.18770
C          0.73270       -4.32610        0.56880
C          0.21600       -5.69850        0.95750
H         -0.40110       -5.69840        1.86120
H          1.07030       -6.36340        1.11000
H         -0.36990       -6.09990        0.12640
O          1.43630       -4.14170       -0.41200
