18
Properties=species:S:1:pos:R:3:forces:R:3 energy=-8899.803650214444 stress="0.0 0.0 0.0 0.0 0.0 0.0 0.0 0.0 0.0" pbc="F F F"
C          2.67020       -2.44310       -1.19340
H          3.76160       -2.35170       -1.18320
H          2.41210       -3.41170       -1.63310
H          2.26620       -1.64990       -1.83410
C          2.11800       -2.34000        0.22530
H          2.41790       -1.39150        0.68710
H          2.50940       -3.15290        0.84160
N          0.66170       -2.42030        0.29290
C         -0.10950       -1.22050        0.03610
H         -1.00620       -1.19760        0.66170
H          0.49820       -0.35010        0.29450
H         -0.42300       -1.11890       -1.01460
C          0.10220       -3.67010        0.22550
C         -1.41220       -3.73730        0.16940
H         -1.85950       -3.30790        1.07270
H         -1.81240       -3.19570       -0.69350
H         -1.69650       -4.78670        0.09880
O          0.78630       -4.68420        0.23120
