18
Properties=species:S:1:pos:R:3:forces:R:3 energy=-21768.470675989916 stress="0.0 0.0 0.0 0.0 0.0 0.0 0.0 0.0 0.0" pbc="F F F"
C         21.80610      -23.55790       -0.01550
H         22.34780      -24.50070       -0.01990
C         20.41570      -23.54730        0.00520
H         19.86830      -24.48600        0.01590
C         19.72790      -22.33730        0.01310
H         18.64070      -22.33030        0.02990
C         20.43060      -21.13640       -0.00030
H         19.89410      -20.19100        0.00560
C         21.82200      -21.14290       -0.02230
H         22.37580      -20.20770       -0.03760
C         22.51500      -22.35460       -0.03130
N         24.75310      -22.16300       -1.05780
C         26.08180      -22.26290       -0.71870
H         26.82630      -22.12250       -1.49180
C         26.34600      -22.53600        0.58700
H         27.30660      -22.65630        1.06930
S         24.87260      -22.68320        1.45550
C         24.00130      -22.36000       -0.01560
