18
Properties=species:S:1:pos:R:3:forces:R:3 energy=-12979.457091111124 stress="0.0 0.0 0.0 0.0 0.0 0.0 0.0 0.0 0.0" pbc="F F F"
C         12.75400       -7.70730       -0.02790
H         13.34270       -6.79540       -0.05650
C         11.36590       -7.66960       -0.02040
H         10.83870       -6.71920       -0.03920
C         10.66800       -8.86970        0.00860
H          9.58190       -8.89430        0.01460
C         11.39720      -10.05410        0.02740
H         10.88800      -11.01590        0.04710
N         12.72860      -10.10870        0.02240
C         13.39220       -8.94780        0.00380
C         15.80160       -9.04100        0.98820
H         15.60410       -9.06360        2.05130
C         17.08010       -9.03240        0.33900
H         18.05480       -9.05120        0.80800
C         16.81950       -8.99670       -0.99040
H         17.43900       -8.97970       -1.87560
O         15.48190       -8.98030       -1.21700
C         14.87290       -9.01340       -0.00160
