14
Properties=species:S:1:pos:R:3:forces:R:3 energy=-10410.219035185868 stress="0.0 0.0 0.0 0.0 0.0 0.0 0.0 0.0 0.0" pbc="F F F"
O          3.78570       -4.84440       -0.40590
C          4.57880       -2.96650        0.85220
H          4.96570       -3.10070        1.86800
H          3.52470       -2.68860        0.88520
H          5.16580       -2.16360        0.39350
C          4.73170       -4.24470        0.06430
C          6.50840       -6.11750        0.00870
H          5.86050       -6.98460        0.00440
C          7.93660       -6.07610        0.02730
H          8.61610       -6.91690        0.05170
C          8.27290       -4.76100        0.00700
H          9.21700       -4.23560        0.00900
O          7.16660       -3.98180       -0.01310
C          6.09160       -4.82350       -0.04350
