18
Properties=species:S:1:pos:R:3:forces:R:3 energy=-8457.06116812713 stress="0.0 0.0 0.0 0.0 0.0 0.0 0.0 0.0 0.0" pbc="F F F"
C          5.50560      -23.16850       -0.04490
C          6.81090      -22.40550       -0.08670
H          6.76040      -21.55950        0.61040
C          7.14310      -21.88910       -1.49090
H          6.35910      -21.21540       -1.85450
H          7.22480      -22.71920       -2.19990
H          8.09080      -21.34030       -1.49630
H          7.62250      -23.05100        0.26990
C          4.28640      -22.48650       -0.04590
H          4.28750      -21.39710       -0.05200
C          3.08000      -23.17820       -0.04100
H          2.14130      -22.62890       -0.03660
C          3.07380      -24.57040       -0.04420
H          2.13150      -25.11310       -0.04170
C          4.28080      -25.26190       -0.05200
H          4.28650      -26.34980       -0.05460
C          5.48530      -24.56370       -0.05270
H          6.42670      -25.11040       -0.05300
