22
Properties=species:S:1:pos:R:3:forces:R:3 energy=-15303.372794816842 stress="0.0 0.0 0.0 0.0 0.0 0.0 0.0 0.0 0.0" pbc="F F F"
C         12.83050      -32.11520       -0.04990
H         13.37760      -31.18230       -0.15680
C         11.44320      -32.06830       -0.00790
H         10.93720      -31.10680       -0.04810
C         10.70700      -33.24440        0.09000
H          9.62180      -33.21290        0.12910
C         11.37750      -34.46180        0.13010
H         10.81550      -35.38970        0.19790
C         12.76550      -34.51120        0.07400
H         13.26280      -35.47300        0.11540
C         13.52140      -33.33350        0.00880
C         17.14220      -32.23480        0.42900
H         17.66580      -31.35320        0.78820
C         15.75410      -32.24270        0.39890
H         15.22880      -31.37070        0.77670
C         15.01630      -33.34480       -0.05870
C         15.77850      -34.44740       -0.46020
C         17.16410      -34.46760       -0.44540
H         17.67500      -35.36360       -0.78470
C         17.85440      -33.35050        0.00320
H         18.94000      -33.35360        0.02170
F         15.17300      -35.55710       -0.94100
