17
Properties=species:S:1:pos:R:3:forces:R:3 energy=-8893.000679525361 stress="0.0 0.0 0.0 0.0 0.0 0.0 0.0 0.0 0.0" pbc="F F F"
C          1.55110       -1.87680       -2.29230
H          1.74910       -2.49260       -3.16660
C          2.43090       -1.89200       -1.21460
H          3.32060       -2.51580       -1.24030
C          2.15960       -1.10120       -0.10190
H          2.83770       -1.10200        0.74790
C          1.02420       -0.29920       -0.07090
H          0.80040        0.32380        0.79200
C          0.13940       -0.27850       -1.14960
C          0.40910       -1.08310       -2.26160
H         -0.27430       -1.08990       -3.10890
N         -1.04360        0.51010       -1.05520
H         -1.74630        0.13940       -1.68440
C         -0.86260        1.93750       -1.30610
H         -0.46670        2.17540       -2.30700
H         -0.17380        2.35450       -0.56220
H         -1.82520        2.44370       -1.17800
