14
Properties=species:S:1:pos:R:3:forces:R:3 energy=-31478.212887913436 stress="0.0 0.0 0.0 0.0 0.0 0.0 0.0 0.0 0.0" pbc="F F F"
C          2.01720      -24.64490       -0.91960
H          0.97210      -24.68260       -1.19950
C          2.80340      -25.67140       -0.49960
H          2.47730      -26.69700       -0.38550
N          4.10490      -25.35180       -0.20260
C          4.29730      -24.08990       -0.41650
S          2.93080      -23.18870       -0.95060
S          5.88500      -23.29320       -0.19040
C          6.37020      -23.82970        1.43770
H          6.36990      -24.92270        1.45270
H          7.37810      -23.44370        1.60700
H          5.67590      -23.41910        2.17340
O          6.82270      -23.87150       -1.14320
O          5.62290      -21.86270       -0.15880
