15
Properties=species:S:1:pos:R:3:forces:R:3 energy=-12353.311229280192 stress="0.0 0.0 0.0 0.0 0.0 0.0 0.0 0.0 0.0" pbc="F F F"
C         12.07850      -16.28150        1.07950
N         12.55460      -17.04030        0.00530
H         11.79980      -17.36690       -0.58620
N         13.80660      -19.09810       -0.03000
C         15.17710      -19.32360       -0.03500
H         15.58730      -20.32410       -0.05330
C         15.83090      -18.14600       -0.01970
H         16.86680      -17.84240       -0.02950
O         14.88830      -17.15080        0.00270
C         13.70910      -17.80900       -0.00590
O         10.92850      -15.89920        1.06530
C         13.04960      -15.96330        2.18930
H         13.47810      -16.87560        2.61570
H         13.87730      -15.35460        1.81490
H         12.50560      -15.41320        2.95770
