11
Properties=species:S:1:pos:R:3:forces:R:3 energy=-7300.857360999221 stress="0.0 0.0 0.0 0.0 0.0 0.0 0.0 0.0 0.0" pbc="F F F"
C         -0.85630       -3.18510        1.90310
H         -0.88300       -2.24540        2.45700
H         -1.56080       -3.13290        1.06300
O          0.48310       -3.33740        1.45510
C          0.74370       -4.33820        0.56740
H         -1.15330       -4.00280        2.57090
C          0.21210       -5.70170        0.95110
H          0.45820       -5.92810        1.99420
H         -0.87770       -5.74540        0.83880
O          1.44880       -4.13310       -0.38260
H          0.66290       -6.44940        0.29800
