21
Properties=species:S:1:pos:R:3:forces:R:3 energy=-15739.697408365062 stress="0.0 0.0 0.0 0.0 0.0 0.0 0.0 0.0 0.0" pbc="F F F"
C         21.85970      -32.45460       -0.89180
H         22.42910      -31.88680       -1.62320
C         20.47460      -32.38330       -0.85310
H         19.93540      -31.74900       -1.55170
C         19.79520      -33.12720        0.10430
H         18.71270      -33.09970        0.18280
C         20.54410      -33.91920        0.96810
H         20.05190      -34.51870        1.73120
N         21.87280      -34.01420        0.92930
C         22.52340      -33.28740        0.01580
C         26.15630      -32.19060       -0.02380
H         26.71400      -31.25910       -0.04590
C         24.76640      -32.16770       -0.02540
H         24.24690      -31.21220       -0.04280
C         24.01530      -33.34450        0.01510
C         24.71720      -34.54960        0.02630
C         26.10360      -34.59870        0.01610
H         26.59030      -35.56840        0.02750
C         26.82430      -33.41100       -0.00450
H         27.90990      -33.44180       -0.00800
F         24.04860      -35.70960        0.02970
