14
Properties=species:S:1:pos:R:3:forces:R:3 energy=-31478.091310977175 stress="0.0 0.0 0.0 0.0 0.0 0.0 0.0 0.0 0.0" pbc="F F F"
C          2.00770      -24.67630       -0.90850
H          0.96270      -24.73670       -1.18060
C          2.81050      -25.66220       -0.43380
H          2.50080      -26.68370       -0.25470
N          4.10550      -25.30720       -0.16630
C          4.29670      -24.06250       -0.44640
S          2.89930      -23.21150       -1.03840
S          5.88890      -23.27210       -0.14410
C          6.26080      -22.46090       -1.68980
H          6.19010      -23.19000       -2.49840
H          7.28700      -22.10090       -1.59440
H          5.57960      -21.62160       -1.83400
O          6.87130      -24.32610        0.04490
O          5.69140      -22.22610        0.85150
