16
Properties=species:S:1:pos:R:3:forces:R:3 energy=-10907.059355214222 stress="0.0 0.0 0.0 0.0 0.0 0.0 0.0 0.0 0.0" pbc="F F F"
C          7.54150      -21.30750        0.17110
H          6.63630      -20.71480        0.26580
C          7.51760      -22.69120        0.31630
H          6.58690      -23.21110        0.52690
C          8.70400      -23.39850        0.18170
H          8.74930      -24.47980        0.26650
C          9.87190      -22.68270       -0.08020
N          9.90600      -21.35640       -0.22900
C          8.75740      -20.69190       -0.10320
H          8.81490      -19.61160       -0.22650
C         11.17340      -23.43110       -0.25290
O         11.15910      -24.63000       -0.44600
C         12.44820      -22.63840       -0.11600
H         12.53810      -22.26400        0.90990
H         13.29700      -23.28040       -0.35380
H         12.42570      -21.76050       -0.76850
