20
Properties=species:S:1:pos:R:3:forces:R:3 energy=-12003.154896783783 stress="0.0 0.0 0.0 0.0 0.0 0.0 0.0 0.0 0.0" pbc="F F F"
C         13.25130      -37.20500       -0.00340
H         13.78570      -38.15190        0.00550
C         11.86240      -37.19920       -0.02220
H         11.32090      -38.14120       -0.04080
C         11.16750      -35.99360       -0.01740
H         10.08100      -35.98740       -0.03330
C         11.87600      -34.79480        0.00660
H         11.34470      -33.84590        0.00960
C         13.26530      -34.80120        0.03040
H         13.79390      -33.84980        0.02630
C         13.97680      -36.00840        0.02360
C         16.33360      -37.03860       -0.30480
H         16.07560      -38.00250       -0.72550
C         17.64560      -36.55340       -0.06680
H         18.57410      -37.07850       -0.24420
C         17.52470      -35.28350        0.43670
H         18.27690      -34.57370        0.75130
N         16.19280      -34.97870        0.49550
H         15.81280      -34.15890        0.93970
C         15.44430      -36.04460        0.05110
