17
Properties=species:S:1:pos:R:3:forces:R:3 energy=-8893.047921457417 stress="0.0 0.0 0.0 0.0 0.0 0.0 0.0 0.0 0.0" pbc="F F F"
C          1.52700       -1.89710       -2.27980
H          1.70660       -2.52550       -3.14900
C          2.42940       -1.89450       -1.22070
H          3.31680       -2.52080       -1.25330
C          2.18130       -1.07970       -0.12020
H          2.87650       -1.06540        0.71590
C          1.04570       -0.27980       -0.07420
H          0.85950        0.34980        0.79470
C          0.13430       -0.28160       -1.13700
C          0.39280       -1.09380       -2.24500
H         -0.31620       -1.10390       -3.06990
N         -1.04220        0.50010       -1.08980
H         -1.15430        0.90550       -0.16910
C         -1.22410        1.51050       -2.12280
H         -1.25550        1.03650       -3.10950
H         -0.43710        2.28230       -2.14300
H         -2.19160        1.99850       -1.96720
