13
Properties=species:S:1:pos:R:3:forces:R:3 energy=-10846.768731924545 stress="0.0 0.0 0.0 0.0 0.0 0.0 0.0 0.0 0.0" pbc="F F F"
O          4.72180      -16.51670       -0.84470
C          3.95860      -18.09010        0.80380
H          4.21190      -17.87690        1.84900
H          2.96350      -17.70510        0.57420
H          3.98690      -19.17910        0.68080
C          4.96730      -17.44620       -0.11210
N          6.73830      -19.22430       -0.04580
C          8.12250      -19.16300       -0.02150
H          8.73500      -20.05360       -0.03380
C          8.50420      -17.86610        0.01250
H          9.44920      -17.34560        0.03780
O          7.38260      -17.09780        0.00530
C          6.36680      -17.98530       -0.00960
