17
Properties=species:S:1:pos:R:3:forces:R:3 energy=-12850.115518566156 stress="0.0 0.0 0.0 0.0 0.0 0.0 0.0 0.0 0.0" pbc="F F F"
C         15.73850      -21.96100       -0.01780
H         14.78710      -21.43780       -0.03270
C         15.79950      -23.35300       -0.01960
H         14.88940      -23.94700       -0.03180
C         17.03710      -23.97600        0.00720
H         17.14670      -25.05510        0.02970
C         18.17220      -23.16550        0.00920
N         18.13570      -21.83800        0.02000
C         16.93080      -21.25550        0.00490
H         16.93290      -20.16710        0.00950
N         19.46250      -23.75000        0.02170
H         20.14810      -23.08990       -0.33230
C         19.89020      -24.42260        1.17800
N         21.26130      -24.59460        1.21210
H         21.55820      -25.22720        1.94110
H         21.74350      -24.71200        0.33240
O         19.14580      -24.80710        2.05540
