11
Properties=species:S:1:pos:R:3:forces:R:3 energy=-5940.483309483361 stress="0.0 0.0 0.0 0.0 0.0 0.0 0.0 0.0 0.0" pbc="F F F"
F         13.25270      -26.46870        0.00320
C         14.39600      -25.68000        0.00070
H         14.35690      -25.03130       -0.88320
H         14.35160      -25.04230        0.89100
C         15.65280      -26.55410       -0.00320
H         16.31600      -26.24140        0.81160
H         15.33650      -27.57800        0.22290
C         16.41700      -26.50250       -1.32420
H         16.74850      -25.48170       -1.54620
H         15.78670      -26.83630       -2.15620
H         17.30340      -27.14360       -1.29670
