15
Properties=species:S:1:pos:R:3:forces:R:3 energy=-5346.4144081389 stress="0.0 0.0 0.0 0.0 0.0 0.0 0.0 0.0 0.0" pbc="F F F"
C          4.48040       -0.15340       -2.22530
H          5.54470        0.04780       -2.06860
H          4.38620       -0.80580       -3.10040
C          3.85100       -0.80180       -0.99410
H          4.38140       -1.73330       -0.74860
H          3.99000       -0.15360       -0.11670
C          2.37840       -1.09870       -1.16380
H          1.91950       -0.82980       -2.12010
C          1.60830       -1.66080       -0.23550
H          2.04840       -1.93660        0.72640
C          0.14710       -1.95770       -0.39770
H         -0.05260       -3.02910       -0.27430
H         -0.44690       -1.43660        0.36300
H          3.98880        0.79730       -2.45920
H         -0.21900       -1.65350       -1.38440
