14
Properties=species:S:1:pos:R:3:forces:R:3 energy=-7010.126465479079 stress="0.0 0.0 0.0 0.0 0.0 0.0 0.0 0.0 0.0" pbc="F F F"
C          0.02890       -0.03720       -0.03220
H          0.04090       -0.65800        0.87420
H          0.02580       -0.72870       -0.88530
C         -1.23790        0.81900       -0.02140
H         -1.19720        1.49420        0.83960
H         -1.25450        1.45780       -0.91460
C         -2.50680       -0.02710        0.03370
H         -2.52540       -0.64740        0.93730
H         -3.40470        0.59900        0.03830
H         -2.57020       -0.69800       -0.83120
C          1.30650        0.78540       -0.08970
H          2.17680        0.20710        0.24140
H          1.49180        1.14430       -1.10980
F          1.19500        1.90910        0.72040
