34
-29.8181
O          2.74934        1.71896       -1.31810
C          3.31736        1.27394       -0.09539
C          2.77433       -0.07539        0.37821
C          2.53957       -1.05293       -0.79954
O          2.79116       -2.41160       -0.41738
C          1.04636       -0.92145       -1.15996
C          0.34790       -0.48819        0.12107
N         -0.95575        0.15378       -0.01039
C         -1.02462        1.46678       -0.44690
O         -0.03561        2.13597       -0.76041
N         -2.28696        1.99449       -0.51418
C         -3.46368        1.35966       -0.21373
O         -4.55356        1.92904       -0.30978
C         -3.32977       -0.05026        0.23149
C         -2.09057       -0.56867        0.30141
C         -4.59340       -0.79127        0.56377
C          1.41000        0.05327        1.03934
C          0.68618       -1.20269        1.41044
H          1.83250        2.01891       -1.14096
H          3.17505        2.03978        0.67179
H          4.39221        1.17097       -0.27757
H          3.48381       -0.49201        1.10522
H          3.17915       -0.83340       -1.65659
H          3.71792       -2.47760       -0.13392
H          0.63075       -1.85813       -1.54347
H          0.93490       -0.14344       -1.92013
H         -2.35024        2.95584       -0.82937
H         -1.92577       -1.59517        0.62392
H         -5.14064       -0.29158        1.37115
H         -4.39675       -1.82179        0.88457
H         -5.26178       -0.83575       -0.30370
H          1.22991        0.95036        1.61940
H          1.22169       -2.14034        1.33221
H         -0.05102       -1.17009        2.19749
