34
-25.1559
O          3.30324        2.31896       -0.18249
C          3.03558        1.10471       -0.87945
C          2.72931        0.02371        0.15439
C          2.48208       -1.34628       -0.51872
O          2.84786       -2.43078        0.34279
C          0.96304       -1.42283       -0.76497
C          0.32780       -0.50774        0.27487
N         -0.97479        0.04733       -0.05725
C         -1.08211        0.98877       -1.08587
O         -0.17067        1.40216       -1.79032
N         -2.35919        1.45367       -1.30347
C         -3.49589        1.08294       -0.64379
O         -4.58778        1.56461       -0.91567
C         -3.32692        0.05171        0.40982
C         -2.08920       -0.40812        0.63685
C         -4.55753       -0.39715        1.13755
C          1.42186        0.34813        0.85204
C          0.75168       -0.66139        1.72523
H          3.34039        3.03274       -0.84005
H          3.91998        0.84523       -1.46799
H          2.19710        1.25162       -1.56340
H          3.54337       -0.02305        0.88810
H          3.04937       -1.47189       -1.44486
H          3.78066       -2.32023        0.59190
H          0.57998       -2.44263       -0.66246
H          0.74313       -1.05918       -1.77358
H         -2.45462        2.13194       -2.03602
H         -1.90326       -1.16707        1.39092
H         -5.04427        0.44487        1.64256
H         -5.28279       -0.83786        0.44478
H         -4.33072       -1.15065        1.90072
H          1.24759        1.40102        1.03883
H          1.30821       -1.54784        2.00142
H          0.08752       -0.29943        2.49758
