34
-22.6324
O          3.71210        1.86030       -0.99433
C          2.51293        1.64465       -0.26575
C          2.52519        0.21483        0.25073
C          2.46614       -0.80219       -0.92262
O          3.16854       -2.00794       -0.60198
C          0.97577       -1.14939       -1.10525
C          0.33154       -0.87215        0.24348
N         -1.10540       -0.66039        0.25872
C         -1.93750       -1.76506        0.40906
O         -1.54770       -2.92018        0.54032
N         -3.28702       -1.47006        0.40295
C         -3.86168       -0.23661        0.23847
O         -5.08355       -0.07774        0.23914
C         -2.91723        0.89183        0.05394
C         -1.60202        0.61317        0.07567
C         -3.50450        2.26212       -0.14685
C          1.28488       -0.05985        1.06382
C          0.99643       -1.46568        1.47235
H          3.69156        2.75888       -1.36277
H          2.46515        2.34463        0.57536
H          1.64401        1.82042       -0.90970
H          3.43436        0.05296        0.84183
H          2.89766       -0.41013       -1.84622
H          4.09612       -1.77533       -0.42922
H          0.83460       -2.19242       -1.41229
H          0.53139       -0.49239       -1.85846
H         -3.91378       -2.26068        0.51842
H         -0.85795        1.39330       -0.05635
H         -2.73029        3.02948       -0.27174
H         -4.12393        2.55268        0.70916
H         -4.14492        2.28992       -1.03595
H          0.90946        0.74913        1.67520
H          1.75880       -2.22034        1.30910
H          0.38085       -1.63976        2.34176
