34
-25.1769
O          4.20994        1.22439       -1.21396
C          2.96270        1.36086       -0.54326
C          2.66385        0.09561        0.26496
C          2.47854       -1.13344       -0.65979
O          2.89991       -2.33155        0.00438
C          0.96358       -1.22314       -0.92926
C          0.28783       -0.53439        0.25575
N         -1.01541        0.06504       -0.00023
C         -1.11835        1.18908       -0.81913
O         -0.17681        1.75003       -1.37516
N         -2.38670        1.68035       -0.99597
C         -3.52498        1.18033       -0.44296
O         -4.62320        1.70144       -0.63172
C         -3.36698       -0.03152        0.39387
C         -2.13182       -0.52406        0.56060
C         -4.60439       -0.61436        0.99378
C          1.34785        0.22730        1.00070
C          0.69246       -0.94928        1.66396
H          4.30925        2.01807       -1.76979
H          3.02180        2.23337        0.11652
H          2.19401        1.55325       -1.29379
H          3.47735       -0.08134        0.97866
H          3.04851       -1.07401       -1.59176
H          3.84677       -2.22331        0.20209
H          0.73215       -0.68935       -1.85740
H          0.61804       -2.25742       -1.02155
H         -2.47516        2.49761       -1.57747
H         -1.96089       -1.41396        1.15895
H         -5.10237        0.11920        1.63634
H         -5.30368       -0.91742        0.20758
H         -4.38514       -1.49688        1.60447
H          1.14052        1.21245        1.39422
H          1.25886       -1.86473        1.79594
H          0.02196       -0.74821        2.49044
