34
-22.2061
O          2.12479        2.46178       -0.37655
C          3.08205        1.55062        0.15547
C          2.54253        0.12815        0.24632
C          2.15876       -0.46535       -1.12818
O          3.28241       -0.99706       -1.81526
C          1.07936       -1.51633       -0.81763
C          0.35220       -0.93744        0.38530
N         -1.07022       -0.69549        0.25652
C         -1.93796       -1.78380        0.33915
O         -1.57226       -2.94994        0.48900
N         -3.26952       -1.47195        0.24612
C         -3.81468       -0.22610        0.03614
O         -5.03204       -0.04724       -0.05523
C         -2.83836        0.88643       -0.09159
C         -1.53410        0.58839        0.02514
C         -3.38753        2.25817       -0.34908
C          1.27869        0.02521        1.06930
C          0.92619       -1.26052        1.74947
H          2.10312        2.34471       -1.34184
H          3.33829        1.90797        1.15707
H          3.98740        1.57498       -0.45995
H          3.32253       -0.49129        0.70734
H          1.72205        0.29933       -1.77437
H          3.69233       -1.69446       -1.27530
H          1.52330       -2.49007       -0.57336
H          0.42412       -1.67173       -1.68153
H         -3.91459       -2.23620        0.30863
H         -0.77696        1.35900       -0.06288
H         -3.95457        2.28393       -1.28697
H         -2.59636        3.01358       -0.42279
H         -4.06458        2.56872        0.45479
H          0.88829        0.94988        1.47290
H          1.68046       -2.03636        1.81424
H          0.25489       -1.22953        2.59963
