34
-23.1042
O          3.65701        2.21474       -0.16867
C          3.30463        1.01888       -0.86041
C          2.61967        0.01594        0.07297
C          2.16197       -1.24131       -0.70624
O          3.14576       -2.26772       -0.65637
C          0.87869       -1.71400       -0.00075
C          0.25246       -0.44605        0.55564
N         -1.02845       -0.04656        0.00230
C         -1.10675        0.45120       -1.29755
O         -0.14718        0.57085       -2.05771
N         -2.36016        0.80916       -1.72160
C         -3.51041        0.71157       -0.99543
O         -4.59488        1.05438       -1.45753
C         -3.37601        0.17064        0.37247
C         -2.15072       -0.18122        0.79323
C         -4.62184        0.05741        1.19370
C          1.35044        0.58019        0.67003
C          0.73201        0.02048        1.91522
H          4.20586        1.97207        0.59537
H          2.64570        1.30076       -1.68815
H          4.22016        0.59452       -1.28508
H          3.31300       -0.25310        0.88057
H          1.94140       -1.01383       -1.75558
H          3.85279       -2.02679       -1.27988
H          1.11073       -2.41885        0.80738
H          0.22211       -2.24092       -0.70131
H         -2.43046        1.17382       -2.65771
H         -1.99964       -0.58600        1.79099
H         -5.33902       -0.61476        0.70773
H         -5.09138        1.03784        1.31130
H         -4.41656       -0.33677        2.18980
H          1.14442        1.61043        0.41097
H          1.31283       -0.66244        2.52528
H          0.10181        0.68544        2.49501
