34
-23.8911
O          2.69255        2.43664       -0.03054
C          3.11865        1.20233       -0.59169
C          2.78748        0.00037        0.30060
C          2.58453       -1.25244       -0.58672
O          2.96980       -2.41526        0.15119
C          1.07034       -1.25481       -0.92267
C          0.38970       -0.54605        0.24547
N         -0.88473        0.10902       -0.02296
C         -0.90211        1.29217       -0.75653
O          0.10573        1.83626       -1.20684
N         -2.13917        1.84092       -0.95849
C         -3.32711        1.34400       -0.51153
O         -4.39817        1.91022       -0.74124
C         -3.25919        0.08013        0.26507
C         -2.04810       -0.46088        0.46044
C         -4.55081       -0.49237        0.76578
C          1.46120        0.17082        1.01537
C          0.75130       -0.99004        1.64482
H          1.75548        2.53012       -0.30901
H          4.20099        1.25813       -0.74077
H          2.65829        1.10391       -1.58008
H          3.59048       -0.16040        1.03173
H          3.19670       -1.23031       -1.49289
H          2.76310       -3.20357       -0.37638
H          0.66500       -2.26117       -1.05986
H          0.90910       -0.68071       -1.84244
H         -2.16975        2.69720       -1.49535
H         -1.92858       -1.38305        1.02104
H         -5.22238       -0.73038       -0.06668
H         -5.07092        0.21667        1.41964
H         -4.39681       -1.41420        1.33779
H          1.28751        1.15259        1.43381
H          0.04910       -0.78494        2.43994
H          1.29078       -1.92091        1.75997
