34
-21.3185
O          4.23665        1.71311       -0.51524
C          2.99378        1.66771        0.17367
C          2.47568        0.23764        0.26310
C          2.08811       -0.30406       -1.13272
O          3.22431       -0.76077       -1.84886
C          1.04957       -1.40098       -0.85229
C          0.30034       -0.87700        0.36421
N         -1.13450       -0.68875        0.23216
C         -1.96568       -1.80790        0.29468
O         -1.56427       -2.96256        0.42708
N         -3.30657       -1.55123        0.19906
C         -3.88773       -0.32498        0.03343
O         -5.10167       -0.18456       -0.03083
C         -2.95868        0.82491       -0.06525
C         -1.64493        0.58087        0.03614
C         -3.56489        2.17703       -0.27330
C          1.20679        0.10173        1.06670
C          0.87590       -1.19906        1.73045
H          4.15995        1.15169       -1.31263
H          3.14943        2.08161        1.17515
H          2.27953        2.31801       -0.34282
H          3.26502       -0.39226        0.69523
H          1.61214        0.48445       -1.72762
H          3.64798       -1.47849       -1.34349
H          0.40141       -1.55364       -1.72165
H          1.53006       -2.36280       -0.63427
H         -3.92096       -2.34691        0.26096
H         -0.92825        1.39209       -0.03213
H         -4.25094        2.42747        0.54365
H         -4.12595        2.20633       -1.21351
H         -2.80375        2.96303       -0.31706
H          0.81187        1.01636        1.48354
H          1.64598       -1.95940        1.80288
H          0.20425       -1.18869        2.58159
