34
-23.6296
O          3.28397        2.41227       -0.00846
C          3.07484        1.20408       -0.73696
C          2.74438        0.08587        0.25166
C          2.55734       -1.26775       -0.46444
O          2.98524       -2.31431        0.41555
C          1.04374       -1.37966       -0.75399
C          0.35114       -0.50465        0.28385
N         -0.94948        0.04193       -0.07874
C         -1.04932        1.01479       -1.07479
O         -0.11001        1.44365       -1.74299
N         -2.31083        1.48979       -1.31664
C         -3.45741        1.08356       -0.70190
O         -4.55223        1.55201       -0.99588
C         -3.30576        0.02449        0.32929
C         -2.07533       -0.43070        0.57667
C         -4.54969       -0.44607        1.01042
C          1.40652        0.35366        0.91669
C          0.72724       -0.69410        1.75042
H          3.31979        3.13470       -0.65699
H          2.27044        1.35717       -1.45851
H          3.99316        0.98086       -1.28867
H          3.52805        0.03262        1.01812
H          3.15535       -1.35773       -1.37643
H          2.78540       -3.16726       -0.00279
H          0.67864       -2.41031       -0.69629
H          0.84512       -0.99111       -1.75968
H         -2.39490        2.19182       -2.02927
H         -1.90931       -1.20551        1.32143
H         -5.05371        0.38227        1.52140
H         -5.24943       -0.87751        0.28522
H         -4.33561       -1.21486        1.76129
H          1.21296        1.39343        1.14179
H          1.29098       -1.57011        2.03976
H          0.04872       -0.34735        2.51983
