34
-23.6692
O          1.49270        1.90430       -0.87297
C          2.61994        1.60835       -0.06075
C          2.59517        0.13527        0.32842
C          2.52123       -0.79059       -0.91494
O          3.22766       -2.01625       -0.68906
C          1.03396       -1.12778       -1.12147
C          0.38457       -0.93358        0.23670
N         -1.04547       -0.67080        0.24669
C         -1.92505       -1.72514        0.44514
O         -1.59414       -2.89346        0.62062
N         -3.25884       -1.36734        0.43520
C         -3.77730       -0.12030        0.21221
O         -4.99062        0.09671        0.21943
C         -2.78516        0.94990       -0.05040
C         -1.48410        0.60721       -0.01801
C         -3.31172        2.33039       -0.33555
C          1.34184       -0.18389        1.11666
C          1.03497       -1.60945        1.42991
H          1.55239        2.82705       -1.16600
H          2.59655        2.23382        0.83761
H          3.53358        1.83177       -0.62069
H          3.48621       -0.08582        0.92561
H          2.95199       -0.32758       -1.80567
H          4.15253       -1.80587       -0.48561
H          0.89170       -2.14820       -1.49601
H          0.59507       -0.42415       -1.83349
H         -3.92142       -2.12330        0.59276
H         -0.70700        1.33699       -0.21789
H         -3.96163        2.33027       -1.21811
H         -2.50665        3.05313       -0.51693
H         -3.90719        2.70347        0.50552
H          0.95824        0.59291        1.76494
H          0.41199       -1.83192        2.28283
H          1.79403       -2.35612        1.22331
