41
-35.1117
C         -6.46234       -0.56227       -0.50424
N         -5.62722       -0.08594        0.59387
C         -6.30773        0.54047        1.72038
C         -4.26573        0.13076        0.38852
C         -3.61463       -0.29837       -0.77806
C         -2.23980       -0.11584       -0.98531
C         -1.45459        0.50529       -0.02276
C         -2.07058        0.94403        1.14779
C         -3.44914        0.75709        1.34485
N         -0.07141        0.71924       -0.16091
C          0.72921        0.36193       -1.21272
O          0.39349       -0.23202       -2.23503
N          2.05478        0.71099       -1.09650
C          2.70957        1.31726       -0.04038
O          2.14615        1.72519        0.97364
C          4.20709        1.44676       -0.25579
C          4.91043        0.11350       -0.19472
C          5.71865       -0.32289       -1.25384
C          6.34957       -1.56811       -1.18996
C          6.18380       -2.38120       -0.07035
C          5.39358       -1.95078        0.99203
C          4.76542       -0.70732        0.93417
H         -7.50776       -0.67620       -0.19857
H         -6.44176        0.13684       -1.34782
H         -6.13459       -1.55184       -0.84260
H         -5.88844        0.19259        2.67081
H         -6.23622        1.63222        1.66663
H         -7.37203        0.28196        1.74330
H         -4.15906       -0.79806       -1.57341
H         -1.82349       -0.48161       -1.91756
H         -1.49566        1.43413        1.92954
H         -3.86420        1.11683        2.28151
H          0.40387        1.18050        0.61275
H          2.60240        0.36669       -1.87257
H          4.62099        2.11345        0.50938
H          4.37059        1.93605       -1.22426
H          5.86537        0.29460       -2.13638
H          6.97258       -1.90534       -2.01482
H          6.67286       -3.35092       -0.02351
H          5.26320       -2.58262        1.86694
H          4.15277       -0.38704        1.77598
