66
-15.7862
C          0.70898       -0.24089       -1.25663
C          0.20234       -1.26197       -2.30439
C         -1.00304       -2.05345       -1.81837
C         -0.98943       -2.71073       -0.58398
C         -2.13654       -3.33728       -0.08695
C         -3.31440       -3.32730       -0.82202
C         -3.32552       -2.72925       -2.08228
C         -2.17936       -2.09158       -2.57481
O         -4.48247       -3.90223       -0.41938
C         -4.87429       -3.72978        0.94819
C         -5.56283       -2.38052        1.20661
C         -4.65227       -1.14772        1.10380
C         -3.59194       -1.11547        2.18827
O         -3.64745       -1.85291        3.18571
N         -2.57510       -0.21282        2.09177
C         -2.21392        0.63203        0.94439
C         -0.75051        0.33405        0.61160
O          0.06446       -0.04035        1.46849
N         -0.39665        0.52057       -0.69568
C         -2.41458        2.10271        1.26468
C         -2.35416        2.93908        0.00308
O         -2.38617        2.47450       -1.13078
N         -2.27165        4.28416        0.21088
C          1.75789        0.69720       -1.84094
O          2.76018       -0.08077       -2.50063
C          2.41655        1.53382       -0.73128
N          3.47856        2.37801       -1.33265
S          4.50833        3.19550       -0.26095
O          3.68753        3.75875        0.78229
O          5.32964        4.03839       -1.10798
C          5.52898        1.93412        0.42599
C          5.17058        1.34685        1.63976
C          5.98221        0.35761        2.19517
C          7.15860       -0.02186        1.54671
C          7.52642        0.59125        0.34661
C          6.71484        1.57925       -0.21017
H          1.18247       -0.80340       -0.44277
H         -0.07213       -0.72197       -3.22234
H          1.01680       -1.94714       -2.57774
H         -0.09017       -2.71539        0.02760
H         -2.08427       -3.83709        0.87272
H         -4.23935       -2.73910       -2.67321
H         -2.21533       -1.61073       -3.54918
H         -4.06068       -3.90066        1.65732
H         -5.61616       -4.52330        1.12465
H         -5.98990       -2.40651        2.21639
H         -6.39317       -2.26790        0.49858
H         -5.26258       -0.24493        1.21187
H         -4.19424       -1.10221        0.11779
H         -1.83740       -0.34380        2.78361
H         -2.82708        0.35444        0.08840
H         -1.07196        0.94433       -1.33400
H         -3.41091        2.23485        1.70066
H         -1.68067        2.45442        1.99663
H         -2.36845        4.69444        1.13065
H         -2.31721        4.90432       -0.59213
H          1.28536        1.36432       -2.57462
H          3.52098        0.51967       -2.61173
H          1.66564        2.15479       -0.23716
H          2.87866        0.86330       -0.00640
H          3.11671        3.08947       -1.97250
H          4.25704        1.65610        2.14180
H          5.69656       -0.11396        3.13246
H          7.79268       -0.79281        1.97926
H          8.44584        0.30274       -0.15537
H          6.99914        2.07274       -1.13542
