41
-17.3738
C         -4.53960       -1.75093        0.26866
N         -3.78640       -0.68442        0.91058
C         -4.30179       -0.15058        2.16337
C         -2.85932        0.04545        0.17758
C         -2.47625       -0.33594       -1.11520
C         -1.51504        0.38555       -1.84212
C         -0.89393        1.49822       -1.27212
C         -1.27145        1.90294       -0.00149
C         -2.24275        1.18775        0.70625
N          0.07447        2.18307       -2.03524
C          0.98263        3.09398       -1.58068
O          1.23116        4.10778       -2.24386
N          1.67577        2.83739       -0.41600
C          2.27203        1.69206        0.11213
O          2.96501        1.82902        1.11318
C          2.02799        0.35387       -0.57308
C          2.92595       -0.75984       -0.08113
C          2.83412       -1.19527        1.24805
C          3.64216       -2.23011        1.71801
C          4.55184       -2.84499        0.86021
C          4.65337       -2.42173       -0.46487
C          3.84238       -1.38553       -0.93518
H         -5.12889       -1.36907       -0.57216
H         -3.85997       -2.52976       -0.10135
H         -5.22097       -2.23207        0.97299
H         -4.80329        0.81026        2.00913
H         -5.01538       -0.83903        2.62119
H         -3.48572       -0.01130        2.88493
H         -2.92247       -1.20132       -1.59722
H         -1.23882        0.02639       -2.82594
H         -0.86256        2.79387        0.46062
H         -2.51024        1.56277        1.68962
H         -0.19860        2.34949       -2.99546
H          2.13418        3.65335       -0.03959
H          2.14120        0.45944       -1.65773
H          1.00313        0.04151       -0.36423
H          2.13929       -0.70203        1.92465
H          3.56131       -2.55009        2.75363
H          5.18215       -3.65182        1.22483
H          5.36414       -2.90001       -1.13433
H          3.92916       -1.06832       -1.97062
