45
-3.67271
O         -4.90704       -1.95782        1.42993
N         -5.11249       -1.09698        0.37643
C         -3.90546       -0.61892        0.04524
C         -2.88555       -1.14112        0.90383
C         -1.44366       -0.92532        0.96390
O         -0.73751       -1.64767        1.65845
N         -0.96057        0.12447        0.20171
C          0.37269        0.46205        0.08043
C          0.81691        1.45006       -0.76709
N          2.18420        1.52295       -0.66038
C          3.00986        2.44410       -1.41420
C          2.63728        0.59409        0.25601
C          1.51002       -0.07022        0.72218
C          4.02066        0.39022        0.61946
O          4.97238        1.01128        0.16402
O          4.11828       -0.60654        1.54281
C          5.44741       -0.90942        1.98008
C          6.12769       -1.83858        0.99176
C         -3.58659       -1.99343        1.74349
C         -3.23398       -2.88807        2.86783
C         -3.77762        0.29908       -1.07599
C         -3.31078       -0.16287       -2.31297
C         -3.12029        0.73260       -3.36723
C         -3.39219        2.08905       -3.18950
C         -3.85847        2.55347       -1.95960
C         -4.05444        1.66116       -0.90353
H         -1.59213        0.70063       -0.33203
H          0.28014        2.09708       -1.44877
H          3.68673        2.95966       -0.72945
H          2.37185        3.18413       -1.90417
H          3.56343        1.87434       -2.16499
H          1.52830       -0.86258        1.46130
H          6.02729        0.00740        2.13619
H          5.36063       -1.40308        2.95311
H          7.12417       -2.11530        1.34570
H          6.22715       -1.36692        0.00886
H          5.53555       -2.74826        0.84880
H         -2.15673       -2.96398        3.02565
H         -3.67912       -2.52188        3.79824
H         -3.60827       -3.90049        2.68469
H         -3.09331       -1.21858       -2.46314
H         -2.76395        0.37157       -4.32933
H         -3.24979        2.78404       -4.01416
H         -4.07505        3.61087       -1.82586
H         -4.41764        2.03376        0.05232
