39
-58.6854
S          2.51994       -1.48778        0.41481
O          3.51496       -2.25416        1.12305
O          2.67364       -1.08209       -0.96400
N          2.19658       -0.06547        1.25637
C          3.24404        0.87286        1.41353
O          4.40705        0.60703        1.14328
C          2.81016        2.24882        1.86167
C          4.00252        3.14838        2.12883
C          0.99736       -2.34895        0.50966
C         -0.10992       -1.91104       -0.20859
N         -0.04199       -0.69347       -0.91339
C         -1.08611        0.07555       -1.42447
C         -2.28604        0.19945       -0.72513
C         -3.36267        0.89969       -1.25822
C         -3.22062        1.51296       -2.50377
C         -2.01462        1.41418       -3.20445
C         -0.95448        0.69384       -2.66484
C         -4.63912        0.99874       -0.48013
F         -4.63643        0.22368        0.64278
F         -5.72392        0.60796       -1.19991
F         -4.89031        2.26702       -0.05911
C         -1.28244       -2.67062       -0.12711
C         -1.28276       -3.81583        0.65366
N         -0.21543       -4.24514        1.34087
C          0.92030       -3.50345        1.25726
H          1.25431        0.30156        1.12873
H          2.21113        2.14081        2.77160
H          2.17116        2.69265        1.08599
H          4.59905        3.28403        1.22753
H          4.65434        2.72185        2.89867
H          3.68618        4.14165        2.46136
H          0.85716       -0.55527       -1.39003
H         -2.38019       -0.25836        0.25825
H         -4.05293        2.07385       -2.92334
H         -1.91011        1.89482       -4.17296
H         -0.02786        0.59847       -3.22593
H         -2.18245       -2.40491       -0.67296
H         -2.18177       -4.42783        0.73290
H          1.76228       -3.89549        1.80752
