24
-36.1196
C         -0.28197       -0.29557       -0.32424
C         -0.57349       -1.45096        0.61785
O         -1.43288       -1.46680        1.48780
O          0.25782       -2.49596        0.41909
C          0.92705        0.53899        0.12114
C          2.23559       -0.25863        0.23641
C          2.36484       -0.95119        1.57773
O          1.58403       -0.80847        2.51177
O          3.42507       -1.77910        1.66489
N         -1.49419        0.52248       -0.37092
C         -1.76179        1.34851       -1.42893
O         -1.00345        1.46176       -2.38568
C         -3.05639        2.10823       -1.32869
H         -0.11357       -0.70105       -1.32970
H          0.07444       -3.10133        1.16936
H          0.69955        1.03577        1.07302
H          1.07060        1.33953       -0.61568
H          2.30307       -0.99803       -0.57042
H          3.08400        0.42820        0.15720
H          3.96817       -1.81289        0.85772
H         -2.14604        0.43074        0.40375
H         -3.90175        1.41781       -1.27245
H         -3.05537        2.75633       -0.44884
H         -3.17333        2.73163       -2.22217
