24
-41.8143
C         -0.46471       -0.98856       -0.04259
C         -1.32143       -2.09922        0.56341
O         -2.52236       -2.04718        0.76396
O         -0.62295       -3.22251        0.81851
C          0.69974       -0.60255        0.88715
C          2.03945       -0.53287        0.14145
C          2.89467        0.59096        0.66987
O          3.93208        0.42128        1.29688
O          2.39822        1.81260        0.38240
N         -1.35484        0.14832       -0.31741
C         -0.92553        1.27681       -0.95602
O          0.26209        1.47520       -1.21983
C         -1.98090        2.30332       -1.25595
H         -0.11394       -1.34986       -1.01271
H         -1.28231       -3.84973        1.18524
H          0.81197       -1.32328        1.70744
H          0.48078        0.35289        1.37962
H          2.58890       -1.47468        0.25802
H          1.92889       -0.38083       -0.93775
H          1.59531        1.77554       -0.19594
H         -2.34646        0.01536       -0.11507
H         -1.94795        2.54382       -2.32293
H         -1.76298        3.20220       -0.67234
H         -2.98573        1.95296       -1.00541
