39
-66.9129
S          0.68881       -0.59006        2.61425
O         -0.64443       -0.01891        2.73588
O          1.30120       -1.23383        3.75164
N          1.64372        0.67145        2.11543
C          3.01381        0.57817        1.83174
O          3.61486       -0.48346        1.86035
C          3.66514        1.89430        1.47166
C          5.13656        1.70664        1.14492
C          0.67063       -1.71576        1.25708
C         -0.34736       -1.73644        0.30204
N         -1.35059       -0.75183        0.26260
C         -1.91137       -0.09897       -0.84229
C         -3.13866        0.54167       -0.67214
C         -3.78890        1.15193       -1.75089
C         -3.19886        1.10265       -3.02206
C         -1.97735        0.46354       -3.20664
C         -1.34103       -0.13139       -2.12063
C         -5.11302        1.83479       -1.54907
F         -5.47800        1.93294       -0.24036
F         -6.13153        1.18662       -2.17567
F         -5.11722        3.10689       -2.03293
C         -0.29128       -2.72048       -0.68948
C          0.76283       -3.61350       -0.71114
N          1.75131       -3.60244        0.19908
C          1.67380       -2.66548        1.17782
H          1.15868        1.56425        2.08511
H          3.55395        2.58329        2.31589
H          3.14316        2.31911        0.60729
H          5.26371        1.02346        0.29780
H          5.60328        2.66156        0.88873
H          5.67378        1.27878        1.99843
H         -1.55255       -0.29901        1.16030
H         -3.60116        0.55330        0.31490
H         -3.69398        1.56556       -3.87308
H         -1.51657        0.42434       -4.19066
H         -0.37792       -0.60680       -2.28772
H         -1.06756       -2.79905       -1.44650
H          0.83593       -4.37511       -1.48256
H          2.48417       -2.70274        1.90089
