41
-34.8738
C         -6.55343       -0.07620       -0.43583
N         -5.65553        0.32397        0.64849
C         -6.05262       -0.17515        1.96706
C         -4.28028        0.38636        0.38132
C         -3.72647       -0.01440       -0.84330
C         -2.35622        0.09728       -1.11961
C         -1.48227        0.62647       -0.17699
C         -2.00565        1.04308        1.04670
C         -3.38067        0.92837        1.31389
N         -0.09906        0.77735       -0.39318
C          0.61699        0.43301       -1.50963
O          0.18662       -0.08241       -2.53813
N          1.96918        0.68964       -1.45503
C          2.70986        1.23710       -0.42549
O          2.21792        1.63862        0.62928
C          4.20326        1.28028       -0.69930
C          4.89978        0.01218       -0.27258
C          4.80126       -0.43104        1.05461
C          5.43589       -1.60378        1.46199
C          6.18658       -2.34145        0.55062
C          6.30557       -1.90404       -0.76726
C          5.66789       -0.73203       -1.18040
H         -6.40061        0.54136       -1.32809
H         -6.42045       -1.13344       -0.69340
H         -7.59829        0.06575       -0.13854
H         -5.51687        0.29996        2.79300
H         -7.11532        0.03383        2.13767
H         -5.90851       -1.25962        2.03016
H         -4.34397       -0.43673       -1.62991
H         -2.01497       -0.23587       -2.09336
H         -1.36325        1.47836        1.80830
H         -3.73952        1.31593        2.26307
H          0.44432        1.18389        0.36684
H          2.44416        0.36956       -2.28590
H          4.36680        1.47866       -1.76572
H          4.63133        2.13385       -0.15958
H          4.22143        0.13340        1.78407
H          5.34266       -1.94037        2.49119
H          6.68227       -3.25478        0.86944
H          6.89877       -2.47848       -1.47481
H          5.78139       -0.40844       -2.21164
