24
-45.8156
C         -0.25792       -0.83671        0.10571
C         -1.12291       -2.06425        0.34403
O         -2.31067       -2.05921        0.62880
O         -0.44329       -3.21675        0.22722
C          0.66604       -0.60683        1.30772
C          1.73536        0.45171        1.05736
C          2.78349       -0.04563        0.09708
O          3.75904       -0.69014        0.44876
O          2.52773        0.23212       -1.20076
N         -1.15026        0.30528       -0.11512
C         -0.91859        1.25438       -1.07449
O          0.14450        1.32558       -1.68726
C         -2.05007        2.23652       -1.24915
H          0.30845       -1.01459       -0.81464
H         -1.10034       -3.92447        0.39731
H          0.06754       -0.31027        2.17944
H          1.15506       -1.55141        1.58105
H          1.31842        1.40298        0.71305
H          2.24825        0.68106        1.99982
H          1.69585        0.73682       -1.38290
H         -2.06593        0.25609        0.32283
H         -1.92908        2.78135       -2.18909
H         -2.05164        2.94553       -0.41676
H         -3.00903        1.71086       -1.28001
