66
-2.85627
C          0.60472       -0.35128        0.46474
C          0.70628       -1.85814        0.82406
C         -0.55153       -2.64628        0.51318
C         -1.54514       -2.79301        1.48699
C         -2.81747       -3.24114        1.12862
C         -3.11613       -3.52734       -0.20211
C         -2.10149       -3.51319       -1.14927
C         -0.82832       -3.05997       -0.79548
O         -4.40888       -3.85603       -0.48230
C         -5.01298       -3.14367       -1.56608
C         -5.55923       -1.74980       -1.20268
C         -4.49903       -0.66414       -0.91748
C         -4.30585       -0.40455        0.56348
O         -4.91568       -1.03837        1.44518
N         -3.45473        0.57388        0.96774
C         -2.71078        1.56151        0.19252
C         -1.19445        1.37204        0.30208
O         -0.39620        2.30769        0.23970
N         -0.79081        0.07826        0.33099
C         -3.06602        2.98070        0.62353
C         -2.80227        3.22968        2.09822
O         -2.90901        2.36966        2.96940
N         -2.50483        4.52130        2.42232
C          1.42151        0.01097       -0.79129
O          1.10449       -0.88026       -1.86547
C          2.93458       -0.03052       -0.51860
N          3.65878        0.28462       -1.76599
S          5.30413       -0.06886       -1.82101
O          5.74646        0.36962       -3.13334
O          5.47995       -1.42114       -1.36596
C          6.01094        1.03775       -0.62271
C          6.65333        2.19517       -1.06260
C          7.22832        3.06807       -0.13773
C          7.17019        2.77542        1.22536
C          6.54109        1.60786        1.66290
C          5.96831        0.73029        0.73783
H          1.02840        0.25370        1.27640
H          0.92820       -1.94756        1.89574
H          1.55023       -2.31873        0.30221
H         -1.34778       -2.49073        2.51340
H         -3.60369       -3.30190        1.88009
H         -2.29354       -3.84441       -2.16243
H         -0.05658       -2.98759       -1.55796
H         -4.36081       -3.06641       -2.44292
H         -5.86879       -3.76719       -1.86777
H         -6.15705       -1.42315       -2.06421
H         -6.24947       -1.83644       -0.35553
H         -3.54305       -0.90746       -1.38578
H         -4.84433        0.28108       -1.35772
H         -3.45293        0.73911        1.97643
H         -2.96608        1.44020       -0.86420
H         -1.52462       -0.61703        0.40214
H         -4.13140        3.15356        0.44380
H         -2.49310        3.69685        0.02588
H         -2.30526        5.22277        1.72229
H         -2.28759        4.73692        3.38924
H          1.15688        1.02223       -1.11759
H          1.83052       -0.78950       -2.51203
H          3.22460       -1.03088       -0.19392
H          3.19159        0.69645        0.25360
H          3.49889        1.21659       -2.14044
H          6.70702        2.41575       -2.12673
H          7.72213        3.97318       -0.48378
H          7.61895        3.45530        1.94777
H          6.50057        1.37761        2.72532
H          5.48582       -0.17917        1.07999
