45
-2.29046
O         -5.46487       -1.76208        0.47297
N         -5.23232       -0.58250       -0.19748
C         -3.90407       -0.40673       -0.19521
C         -3.24308       -1.46500        0.50648
C         -1.83792       -1.72807        0.79673
O         -1.49504       -2.81520        1.25297
N         -0.96109       -0.69239        0.53351
C          0.41032       -0.75237        0.70044
C          1.16317       -1.78630        1.19925
N          2.48246       -1.41542        1.17973
C          3.56089       -2.26408        1.64328
C          2.60017       -0.14039        0.66596
C          1.30973        0.28362        0.36818
C          3.84898        0.56348        0.49209
O          4.95399        0.13580        0.78573
O          3.61168        1.78573       -0.06309
C          4.77954        2.57930       -0.29758
C          5.43352        2.18072       -1.60782
C         -4.28698       -2.29393        0.88759
C         -4.39486       -3.57183        1.62769
C         -3.32971        0.74951       -0.87014
C         -2.74984        0.60833       -2.13729
C         -2.14539        1.70446       -2.75982
C         -2.11646        2.94327       -2.11841
C         -2.68992        3.08803       -0.85518
C         -3.29775        1.99461       -0.23095
H         -1.30405        0.18903        0.18387
H          0.87345       -2.75844        1.57304
H          4.14191       -2.59715        0.77951
H          4.18285       -1.70296        2.34416
H          3.13922       -3.13048        2.16025
H          1.05508        1.24634       -0.05786
H          5.48196        2.50164        0.54006
H          4.45015        3.62171       -0.34665
H          4.72093        2.25881       -2.43534
H          6.29478        2.81982       -1.81832
H          5.77333        1.14018       -1.57987
H         -4.94676       -4.31544        1.04417
H         -4.91991       -3.42378        2.57658
H         -3.41874       -4.00217        1.85798
H         -2.76535       -0.35364       -2.64550
H         -1.69923        1.59339       -3.74531
H         -1.65263        3.79737       -2.60819
H         -2.66967        4.05578       -0.35695
H         -3.74248        2.11942        0.75471
