39
-57.0646
S          1.00314        0.16261        1.73424
O          0.72974        1.57803        1.82704
O          0.14038       -0.79111        2.40485
N          2.50988       -0.15993        2.35399
C          3.58374        0.73495        2.29016
O          3.61837        1.66090        1.49475
C          4.68665        0.41914        3.26552
C          5.93247        1.22903        2.97442
C          1.03507       -0.30375        0.04138
C         -0.16449       -0.62926       -0.60145
N         -1.40454       -0.48578        0.05212
C         -2.69877       -0.34388       -0.46233
C         -2.94435        0.29566       -1.68097
C         -4.21932        0.30116       -2.25424
C         -5.27216       -0.31477       -1.56662
C         -5.04899       -0.92176       -0.32991
C         -3.76668       -0.93640        0.21662
C         -4.44286        0.95334       -3.59514
F         -3.29184        1.36530       -4.19784
F         -5.23942        2.05282       -3.51806
F         -5.04129        0.11443       -4.48680
C         -0.08437       -1.03537       -1.94032
C          1.15028       -1.12089       -2.55848
N          2.31014       -0.82839       -1.94138
C          2.22608       -0.41624       -0.65311
H          2.49309       -0.91280        3.03707
H          4.32268        0.63051        4.27686
H          4.91846       -0.64993        3.19680
H          6.72507        0.98093        3.68637
H          6.30115        1.02648        1.96253
H          5.72933        2.30320        3.04555
H         -1.38289       -0.65677        1.06025
H         -2.12754        0.80197       -2.19345
H         -6.27346       -0.32813       -1.99494
H         -5.86704       -1.39986        0.20285
H         -3.60053       -1.43706        1.16635
H         -0.96955       -1.31642       -2.50312
H          1.23498       -1.43956       -3.59452
H          3.18937       -0.18236       -0.21707
