41
-18.4433
C         -6.47008        1.59689       -0.35902
N         -5.74838        0.84944        0.66544
C         -6.53258        0.20190        1.70534
C         -4.43168        0.45834        0.43627
C         -3.69695        0.92923       -0.66042
C         -2.36025        0.57601       -0.87745
C         -1.70115       -0.27028        0.00424
C         -2.40735       -0.76363        1.10142
C         -3.74617       -0.40341        1.30903
N         -0.35657       -0.66902       -0.14160
C          0.51919       -0.28248       -1.14708
O          0.25045        0.47494       -2.06718
N          1.74981       -0.89447       -0.99295
C          2.85792       -0.63094       -1.77853
O          2.91902        0.19775       -2.68010
C          4.08170       -1.45271       -1.39069
C          5.04314       -0.70219       -0.49895
C          5.62489       -1.32459        0.61491
C          6.53039       -0.62790        1.42034
C          6.87232        0.68879        1.11568
C          6.31637        1.31003        0.00315
C          5.41522        0.61523       -0.80329
H         -7.49008        1.83186       -0.04388
H         -6.53429        1.02580       -1.29260
H         -5.97943        2.55777       -0.55625
H         -6.62105       -0.87420        1.51894
H         -7.54663        0.61318        1.76284
H         -6.07760        0.36409        2.68896
H         -4.14204        1.59891       -1.39038
H         -1.87460        0.99546       -1.75238
H         -1.94184       -1.43206        1.82010
H         -4.23820       -0.81745        2.18412
H         -0.00182       -1.26280        0.58816
H          1.84472       -1.56656       -0.25312
H          3.75705       -2.38380       -0.90948
H          4.59558       -1.74678       -2.31364
H          5.38652       -2.35553        0.86556
H          6.97496       -1.11249        2.28591
H          7.57687        1.23093        1.74063
H          6.57960        2.33429       -0.24689
H          5.00301        1.12246       -1.67516
