39
-59.0222
S          0.80262        0.12766        1.90567
O          0.40212        1.43309        1.42884
O          0.00454       -0.56587        2.90219
N          2.30547        0.24579        2.58865
C          3.39707        0.89507        2.00851
O          3.37489        1.33201        0.87018
C          4.60916        0.92587        2.90890
C          5.77781        1.63991        2.26130
C          0.95219       -0.95084        0.52911
C         -0.03807       -0.95022       -0.45599
N         -1.19148       -0.16069       -0.31300
C         -2.44989       -0.26785       -0.91323
C         -3.10558        0.91150       -1.27602
C         -4.31885        0.87539       -1.96778
C         -4.87784       -0.36814       -2.29634
C         -4.24045       -1.55001       -1.92518
C         -3.03405       -1.49567       -1.23247
C         -4.98884        2.15688       -2.38083
F         -4.40268        3.27169       -1.86126
F         -6.29444        2.21018       -1.99810
F         -4.98419        2.32895       -3.73159
C          0.12586       -1.82332       -1.53738
C          1.24243       -2.63937       -1.59109
N          2.20365       -2.65373       -0.64051
C          2.03362       -1.80255        0.39887
H          2.34097       -0.12521        3.53308
H          4.88711       -0.10954        3.13593
H          4.33685        1.42263        3.84569
H          6.06283        1.15121        1.32363
H          6.64439        1.63595        2.92873
H          5.52113        2.67967        2.03264
H         -1.03238        0.73929        0.14834
H         -2.64566        1.87044       -1.03724
H         -5.81778       -0.41672       -2.84525
H         -4.67537       -2.51342       -2.17556
H         -2.55694       -2.42499       -0.93168
H         -0.59007       -1.85934       -2.35041
H          1.39191       -3.32061       -2.42470
H          2.82793       -1.85511        1.13535
