66
-4.46463
C          0.64396       -1.25586        1.82013
C          0.66093       -2.75883        1.45029
C         -0.65354       -3.19852        0.82455
C         -0.70665       -3.67518       -0.49142
C         -1.93671       -3.83827       -1.14166
C         -3.11661       -3.49037       -0.48676
C         -3.08570       -3.13777        0.85416
C         -1.85986       -3.00810        1.51131
O         -4.27653       -3.47012       -1.21557
C         -4.82076       -2.13848       -1.35775
C         -3.87024       -1.21278       -2.13501
C         -4.20963        0.27060       -2.01200
C         -4.27933        0.75013       -0.57547
O         -5.36280        0.72304        0.03621
N         -3.16441        1.19316        0.07323
C         -1.76882        0.86634       -0.24582
C         -1.20323        0.12620        0.96952
O         -1.78312        0.13971        2.05995
N          0.02769       -0.44132        0.77132
C         -0.90589        2.08423       -0.53445
C         -0.37785        2.72937        0.73476
O          0.74340        2.53272        1.17207
N         -1.30204        3.49074        1.38862
C          2.02302       -0.70788        2.20529
O          1.85880        0.54147        2.91242
C          2.97506       -0.46441        1.02544
N          4.21901        0.06566        1.58698
S          5.47723        0.51254        0.59079
O          6.41995        1.20687        1.44023
O          5.84894       -0.64874       -0.18768
C          4.75516        1.70318       -0.51044
C          4.81943        3.06228       -0.20578
C          4.23822        3.99227       -1.07100
C          3.61638        3.56205       -2.24527
C          3.57966        2.20257       -2.56018
C          4.15910        1.27231       -1.69701
H          0.01661       -1.13781        2.71218
H          1.48277       -2.96548        0.75360
H          0.86114       -3.34862        2.35497
H          0.21266       -3.88766       -1.03136
H         -1.97213       -4.16364       -2.17839
H         -4.01079       -2.93398        1.38122
H         -1.84685       -2.67998        2.54938
H         -5.07205       -1.72167       -0.37801
H         -5.76473       -2.25469       -1.90713
H         -2.85118       -1.38125       -1.78816
H         -3.86555       -1.50467       -3.19350
H         -3.48729        0.87504       -2.57780
H         -5.19392        0.45621       -2.46116
H         -3.33594        1.24047        1.08056
H         -1.75389        0.20716       -1.11102
H          0.42707       -0.44870       -0.15800
H         -0.02153        1.78220       -1.11264
H         -1.45962        2.81323       -1.13182
H         -2.28384        3.41688        1.15146
H         -1.06633        3.84211        2.30901
H          2.49628       -1.39110        2.91674
H          1.32481        1.14078        2.34385
H          3.17254       -1.38068        0.46667
H          2.54384        0.29291        0.36504
H          4.07182        0.73634        2.34624
H          5.31324        3.39529        0.70371
H          4.27243        5.05171       -0.82716
H          3.16647        4.28827       -2.91892
H          3.10487        1.86793       -3.47848
H          4.13685        0.21259       -1.93509
