39
-13.7537
N         -2.90739       -2.14380       -0.61210
C         -1.74759       -2.09553       -1.28658
N         -0.86827       -1.07107       -1.30009
C         -1.09758        0.03045       -0.54888
C         -2.27375        0.07123        0.21060
C         -3.09276       -1.03497        0.11037
O         -4.18770       -0.80935        0.89839
C         -3.95861        0.43176        1.43526
N         -2.82685        1.00622        1.06067
C         -4.99727        0.94236        2.34894
N         -0.20797        1.08380       -0.57755
C          1.13414        0.87236       -1.09839
C          1.76832        2.22646       -1.41891
C          1.88439        3.13718       -0.22882
O          1.12194        3.21768        0.72103
O          2.92017        3.99412       -0.34775
C          2.01619       -0.00521       -0.21959
C          1.91113       -0.02252        1.17812
C          2.74681       -0.83526        1.94701
C          3.70087       -1.64240        1.33068
C          3.81842       -1.64157       -0.05679
C          2.98311       -0.82888       -0.82587
C         -1.40011       -3.27144       -2.14342
H         -4.72250        1.92791        2.73477
H         -5.12513        0.26406        3.19805
H         -5.95592        1.03068        1.82931
H         -0.31505        1.76047        0.18061
H          1.03672        0.35655       -2.06534
H          1.14578        2.74659       -2.15685
H          2.76349        2.08144       -1.85404
H          2.86484        4.56722        0.44498
H          1.16880        0.59200        1.68182
H          2.64819       -0.83533        3.02928
H          4.35035       -2.27258        1.93236
H          4.55837       -2.27367       -0.54144
H          3.08348       -0.84792       -1.90964
H         -1.98729       -4.14472       -1.84031
H         -0.33787       -3.51871       -2.04848
H         -1.61590       -3.04560       -3.19141
