66
-8.79538
C          0.91400       -1.86894        0.60172
C          0.47764       -3.26864        0.09415
C         -1.03095       -3.44279        0.07528
C         -1.70373       -3.75921       -1.11223
C         -3.10247       -3.72661       -1.16924
C         -3.83342       -3.34539       -0.04518
C         -3.18519       -3.13715        1.16368
C         -1.79118       -3.20025        1.22501
O         -5.17962       -3.14487       -0.19693
C         -5.56467       -1.76846        0.01063
C         -4.90225       -0.82440       -1.00702
C         -4.88729        0.63799       -0.57153
C         -4.27013        0.84108        0.79735
O         -4.99283        0.87461        1.80954
N         -2.92722        0.95232        0.94556
C         -1.84964        0.69080       -0.02293
C         -0.79328       -0.10828        0.75548
O         -0.75609       -0.11245        1.99704
N          0.11690       -0.79953        0.00453
C         -1.29307        1.99645       -0.56365
C         -0.41895        1.77355       -1.78242
O         -0.27202        0.69533       -2.34036
N          0.21937        2.89610       -2.22849
C          2.40577       -1.62902        0.34611
O          3.20731       -2.73531        0.78699
C          2.89018       -0.34119        1.03480
N          4.31339       -0.16543        0.69566
S          5.18052        1.03369        1.48515
O          6.56947        0.64472        1.32324
O          4.59345        1.21265        2.78718
C          4.91892        2.49045        0.52827
C          5.90120        2.89610       -0.37382
C          5.72028        4.06191       -1.11663
C          4.56756        4.82890       -0.93825
C          3.59886        4.43489       -0.01223
C          3.77926        3.26741        0.73307
H          0.74124       -1.83646        1.68441
H          0.87459       -3.41740       -0.91990
H          0.93395       -4.04414        0.72503
H         -1.14004       -3.99969       -2.01050
H         -3.61987       -3.92526       -2.10427
H         -3.75723       -2.89796        2.05342
H         -1.29471       -2.99523        2.17049
H         -6.65711       -1.74240       -0.10407
H         -5.34832       -1.46619        1.03879
H         -3.87865       -1.15045       -1.18669
H         -5.40704       -0.92086       -1.97736
H         -4.35822        1.24781       -1.31607
H         -5.91642        1.01896       -0.52209
H         -2.62020        0.95387        1.92080
H         -2.23102        0.07400       -0.83509
H          0.12539       -0.67427       -1.01075
H         -0.73685        2.53619        0.20832
H         -2.12868        2.63261       -0.87343
H         -0.01260        3.81618       -1.87955
H          0.73515        2.83956       -3.10161
H          2.57357       -1.54111       -0.73080
H          3.10533       -2.80153        1.75293
H          2.32333        0.52443        0.69046
H          2.77669       -0.44526        2.11932
H          4.84583       -1.04003        0.73537
H          6.80051        2.29591       -0.49488
H          6.47925        4.36908       -1.83178
H          4.42729        5.73891       -1.51749
H          2.70643        5.03847        0.13190
H          3.03834        2.96122        1.46554
