39
-10.6283
N         -2.77452       -1.91346       -0.81506
C         -1.59069       -1.79070       -1.44176
N         -0.68262       -0.81808       -1.25805
C         -0.92157        0.15556       -0.34981
C         -2.12537        0.12141        0.36485
C         -2.96800       -0.92422        0.07134
O         -4.07795       -0.79425        0.85730
C         -3.83485        0.33448        1.58929
N         -2.67663        0.92393        1.33620
C         -4.88361        0.73046        2.54720
N          0.00755        1.14246       -0.15751
C          1.35779        1.01031       -0.66692
C          2.06476        2.34726       -0.48677
C          1.21579        3.45105       -1.03253
O          0.48761        4.19579       -0.38437
O          1.28792        3.53962       -2.38264
C          2.14321       -0.09070        0.03872
C          2.01606       -0.31569        1.41506
C          2.76281       -1.30717        2.05025
C          3.65297       -2.08994        1.31740
C          3.79693       -1.87853       -0.05221
C          3.04718       -0.88401       -0.68714
C         -1.24795       -2.83058       -2.45903
H         -4.59708        1.64110        3.08156
H         -5.82625        0.91386        2.02250
H         -5.05049       -0.06683        3.27803
H         -0.19617        1.80797        0.57785
H          1.30699        0.76156       -1.73352
H          2.22432        2.55290        0.58138
H          3.04807        2.35642       -0.97345
H          0.65902        4.24667       -2.64475
H          1.32723        0.29001        1.99641
H          2.64604       -1.46171        3.11832
H          4.23262       -2.86276        1.81509
H          4.49043       -2.48473       -0.62909
H          3.16909       -0.72584       -1.75648
H         -2.02888       -3.59707       -2.47595
H         -0.29189       -3.30271       -2.21941
H         -1.16985       -2.38383       -3.45234
