41
-29.3632
C         -6.35516       -1.19206       -0.11445
N         -5.91477        0.18338        0.09636
C         -6.90016        1.12440        0.61368
C         -4.55530        0.47338        0.18556
C         -3.57147       -0.47443       -0.13384
C         -2.20129       -0.18372       -0.08243
C         -1.75975        1.07919        0.29062
C         -2.71221        2.04186        0.61918
C         -4.08137        1.73948        0.56474
N         -0.40345        1.45509        0.35703
C          0.69253        0.66187        0.07196
O          0.65564       -0.50591       -0.29240
N          1.87542        1.35373        0.25962
C          3.17038        0.91720        0.08853
O          4.06759        1.74593        0.24714
C          3.39981       -0.53896       -0.29809
C          4.85362       -0.94345       -0.38619
C          5.37060       -1.93499        0.45918
C          6.71089       -2.31266        0.36671
C          7.54464       -1.70590       -0.57084
C          7.03936       -0.72441       -1.42041
C          5.69955       -0.34910       -1.33318
H         -5.98670       -1.57599       -1.07278
H         -7.44697       -1.26573       -0.15424
H         -6.01011       -1.84445        0.69541
H         -6.75379        1.29809        1.68537
H         -6.84463        2.07871        0.07836
H         -7.92235        0.75570        0.47663
H         -3.83963       -1.48055       -0.44185
H         -1.51701       -0.98151       -0.35109
H         -2.41859        3.04425        0.91769
H         -4.77052        2.53671        0.82595
H         -0.22690        2.40571        0.64504
H          1.83396        2.32993        0.49828
H          2.89876       -1.17260        0.44317
H          2.94132       -0.72426       -1.27677
H          4.73452       -2.42083        1.19566
H          7.10537       -3.07896        1.02835
H          8.58917       -1.99578       -0.63814
H          7.68821       -0.24434       -2.14757
H          5.32080        0.42597       -1.99597
