24
-44.9383
C         -0.27919       -0.94914       -0.55836
C         -0.87530       -1.37923        0.77470
O         -1.09184       -0.66342        1.74373
O         -1.02550       -2.72476        0.85172
C          1.24201       -1.16426       -0.57366
C          2.00827       -0.75967        0.69539
C          2.10455        0.72493        0.92756
O          1.70002        1.61137        0.19400
O          2.73838        0.99984        2.08403
N         -0.64428        0.42888       -0.84573
C         -1.95357        0.72728       -1.12191
O         -2.81326       -0.14342       -1.26541
C         -2.29077        2.18865       -1.20870
H         -0.74246       -1.57106       -1.33542
H         -1.37909       -2.88553        1.74841
H          1.41578       -2.23553       -0.72864
H          1.66063       -0.64332       -1.44322
H          1.56769       -1.22201        1.58429
H          3.03665       -1.13087        0.61156
H          2.77164        1.97601        2.15188
H          0.00948        1.16887       -0.58330
H         -2.75191        2.38605       -2.18221
H         -3.00250        2.44178       -0.41869
H         -1.40546        2.81855       -1.10199
