35
-84.2265
N         -3.95196        1.07015        0.19098
C         -4.00853        0.27343       -0.87675
N         -3.23611       -0.79964       -1.06378
C         -2.30383       -1.06213       -0.13273
C         -2.13275       -0.28080        0.99702
C         -3.01193        0.77668        1.10579
C         -1.04814       -0.52408        2.00840
C          0.36850       -0.39236        1.47083
C          0.71116        0.60946        0.54011
C          2.01377        0.72327        0.03692
C          2.98816       -0.18238        0.47907
C          2.67322       -1.15702        1.42743
C          1.36985       -1.26458        1.91774
O          4.30517       -0.08522        0.10318
C          4.50681       -0.54548       -1.23225
O          2.42329        1.68046       -0.85364
C          1.44066        2.58276       -1.34350
N         -1.55362       -2.22088       -0.32943
N         -4.94357        0.56683       -1.84706
H         -2.97840        1.45864        1.95312
H         -1.19927       -1.52868        2.42513
H         -1.15054        0.17321        2.85511
H         -0.06169        1.29791        0.21302
H          3.44967       -1.82657        1.78870
H          1.14701       -2.03541        2.65327
H          5.56432       -0.40267       -1.47532
H          4.28453       -1.61520       -1.30956
H          3.92094        0.01590       -1.96616
H          1.93264        3.26320       -2.04548
H          0.65418        2.05226       -1.89019
H          1.02231        3.18787       -0.53261
H         -1.75128       -2.56443       -1.26793
H         -0.56193       -2.08046       -0.18045
H         -5.70483        1.10006       -1.45049
H         -5.17782       -0.26411       -2.36849
