66
-13.4913
C          0.40317       -0.13292        0.56690
C          0.94060       -1.06470       -0.53795
C         -0.12227       -2.06925       -0.93743
C         -0.43299       -3.14149       -0.09736
C         -1.58784       -3.89734       -0.31810
C         -2.44931       -3.56630       -1.36372
C         -2.09406       -2.57533       -2.26567
C         -0.93744       -1.82304       -2.05130
O         -3.61734       -4.26886       -1.44984
C         -4.82780       -3.49308       -1.49499
C         -5.16589       -2.77262       -0.18092
C         -4.47670       -1.40744       -0.02033
C         -4.79326       -0.76992        1.31658
O         -5.50998       -1.32108        2.17233
N         -4.27255        0.46290        1.58926
C         -3.19306        1.11766        0.85965
C         -1.84975        0.55617        1.33104
O         -1.53307        0.51477        2.51356
N         -1.00129        0.19615        0.32352
C         -3.16361        2.60936        1.16988
C         -1.98177        3.23810        0.47378
O         -1.54512        2.84092       -0.60015
N         -1.39457        4.27663        1.12593
C          1.18884        1.18599        0.67668
O          1.13318        1.93058       -0.56389
C          2.67088        0.99084        1.00282
N          3.29124        2.32263        1.01330
S          4.91843        2.49369        1.32953
O          5.16873        1.92655        2.63496
O          5.22438        3.87437        1.01716
C          5.71577        1.47071        0.12004
C          6.12285        2.01746       -1.09628
C          6.74215        1.20316       -2.04704
C          6.97148       -0.14636       -1.77032
C          6.59031       -0.68211       -0.53894
C          5.97193        0.13022        0.41246
H          0.45244       -0.64665        1.53531
H          1.23698       -0.47366       -1.41354
H          1.83816       -1.58681       -0.18250
H          0.20472       -3.36030        0.75604
H         -1.84068       -4.71268        0.35442
H         -2.72367       -2.36377       -3.12117
H         -0.69748       -1.00339       -2.72518
H         -5.61167       -4.24064       -1.68763
H         -4.84189       -2.79210       -2.33686
H         -6.25028       -2.59732       -0.14424
H         -4.91948       -3.42004        0.66876
H         -3.39283       -1.50693       -0.08800
H         -4.80190       -0.73237       -0.81654
H         -4.35751        0.70753        2.57109
H         -3.32298        0.95590       -0.21342
H         -1.24950        0.43501       -0.63209
H         -4.08330        3.07943        0.81053
H         -3.09577        2.76662        2.25382
H         -0.64029        4.77565        0.66535
H         -1.78372        4.68563        1.96543
H          0.72709        1.80546        1.45794
H          0.21818        2.27328       -0.66708
H          3.14628        0.38963        0.22341
H          2.78878        0.50792        1.97166
H          2.98912        2.92102        0.24296
H          5.95492        3.07077       -1.30548
H          7.04614        1.62349       -3.00282
H          7.45371       -0.77929       -2.51252
H          6.77583       -1.73015       -0.31745
H          5.67633       -0.27827        1.37464
