24
-27.4115
C         -0.28922       -0.58839       -0.25256
C         -1.29777       -1.40034        0.58759
O         -2.50757       -1.41486        0.39414
O         -0.72864       -2.11505        1.58531
C          0.46116        0.48201        0.56913
C          1.98281        0.43297        0.35549
C          2.56632       -0.85259        0.88994
O          1.88974       -1.74283        1.39213
O          3.90053       -0.94109        0.73679
N         -0.85928       -0.06702       -1.49692
C         -1.86199        0.83165       -1.69528
O         -2.22188        1.05311       -2.85246
C         -2.49067        1.55745       -0.53742
H          0.41666       -1.34345       -0.62094
H          0.26018       -2.08407        1.62321
H          0.12539        1.49108        0.30900
H          0.25631        0.35447        1.63967
H          2.21879        0.52089       -0.70899
H          2.44551        1.26312        0.89844
H          4.31733       -0.15871        0.31471
H         -0.60353       -0.52961       -2.36213
H         -2.23098        2.61799       -0.60644
H         -2.17231        1.18920        0.43611
H         -3.57690        1.44408       -0.59854
