39
-12.4376
N         -3.18732       -1.46664       -1.01701
C         -2.04921       -1.43065       -1.72379
N         -0.96364       -0.65577       -1.47002
C         -0.95575        0.17765       -0.40010
C         -2.10839        0.21048        0.39770
C         -3.14626       -0.61945        0.01802
O         -4.17062       -0.42127        0.89740
C         -3.69029        0.52365        1.76367
N         -2.46124        0.93968        1.51368
C         -4.60785        0.94088        2.84186
N          0.13245        1.03633       -0.18384
C          1.43655        0.62690       -0.73564
C          2.17647        1.88430       -1.20609
C          1.62043        2.43848       -2.49051
O          2.32464        2.77699       -3.43084
O          0.28562        2.63732       -2.48389
C          2.24804       -0.13017        0.31073
C          2.88161        0.52362        1.38193
C          3.67117       -0.18751        2.28958
C          3.83025       -1.56352        2.15007
C          3.19985       -2.23057        1.10273
C          2.41205       -1.52086        0.19170
C         -1.95020       -2.33370       -2.91750
H         -4.88498        0.08178        3.45927
H         -5.51921        1.37734        2.42184
H         -4.13395        1.68832        3.48471
H          0.14856        1.32595        0.79647
H          1.31604       -0.01578       -1.61750
H          3.22911        1.64048       -1.39802
H          2.15162        2.68739       -0.46049
H         -0.13843        2.29052       -1.66546
H          2.78841        1.59872        1.51420
H          4.16924        0.33527        3.10261
H          4.44651       -2.11499        2.85603
H          3.32756       -3.30464        0.99076
H          1.93935       -2.06303       -0.62561
H         -1.11662       -3.03075       -2.79014
H         -2.86993       -2.91251       -3.04770
H         -1.78166       -1.74026       -3.82080
