39
-12.5791
N         -3.55172       -0.91112       -1.59103
C         -2.34132       -1.24578       -2.06814
N         -1.16011       -1.05901       -1.45584
C         -1.11864       -0.48639       -0.22514
C         -2.33302       -0.10543        0.36518
C         -3.46598       -0.35196       -0.37434
O         -4.53780        0.08366        0.35120
C         -3.98315        0.57096        1.50123
N         -2.66471        0.48416        1.56453
C         -4.92015        1.12102        2.49752
N          0.10089       -0.31458        0.40010
C          1.31807       -0.39008       -0.39720
C          1.40238        0.67223       -1.49379
C          1.21478        2.07595       -1.01536
O          0.89952        2.47462        0.09765
O          1.39782        2.96281       -2.02595
C          2.54351       -0.42386        0.50799
C          2.71141        0.46621        1.57740
C          3.84704        0.41419        2.38537
C          4.84583       -0.52173        2.12795
C          4.70635       -1.40532        1.06103
C          3.56446       -1.35487        0.25802
C         -2.29048       -1.89902       -3.41212
H         -5.47961        1.95899        2.07042
H         -5.63826        0.35477        2.80515
H         -4.38117        1.47323        3.38222
H          0.06394        0.39210        1.12847
H          1.29626       -1.36129       -0.91262
H          2.36505        0.60781       -2.01409
H          0.61865        0.47655       -2.23210
H          1.23918        3.85148       -1.64180
H          1.95744        1.21961        1.78567
H          3.94582        1.10951        3.21394
H          5.73044       -0.56034        2.75746
H          5.48078       -2.13889        0.85206
H          3.46683       -2.05343       -0.56941
H         -1.65318       -1.32968       -4.09474
H         -1.89402       -2.91162       -3.33529
H         -3.30314       -1.94548       -3.83162
