39
-14.6324
N         -3.58611       -0.38748       -1.58921
C         -2.37974       -0.42886       -2.17677
N         -1.16956       -0.25638       -1.57547
C         -1.12292       -0.00315       -0.23335
C         -2.33939        0.03971        0.46546
C         -3.48619       -0.15454       -0.27958
O         -4.55084       -0.05189        0.56855
C         -3.98452        0.19279        1.78869
N         -2.66171        0.25934        1.78939
C         -4.92336        0.35055        2.91766
N          0.08604        0.25699        0.39132
C          1.34407       -0.03599       -0.29345
C          1.61623        1.02835       -1.36888
C          2.04197        0.38867       -2.65965
O          3.10754        0.61031       -3.21837
O          1.10984       -0.42657       -3.19973
C          2.48327       -0.08813        0.71537
C          3.49567       -1.05041        0.56994
C          4.56256       -1.10118        1.46874
C          4.63389       -0.19046        2.52070
C          3.64174        0.77474        2.67413
C          2.57680        0.83040        1.77429
C         -2.37556       -0.69527       -3.65278
H         -5.60034        1.19172        2.74015
H         -4.38240        0.53645        3.84912
H         -5.52237       -0.55622        3.04307
H          0.05265        0.12041        1.40052
H          1.26689       -1.04241       -0.72795
H          0.73307        1.63753       -1.59391
H          2.40068        1.73424       -1.06793
H          0.28318       -0.44155       -2.65928
H          3.46573       -1.76542       -0.25041
H          5.34163       -1.84909        1.34342
H          5.46728       -0.22850        3.21731
H          3.69798        1.48973        3.49060
H          1.81914        1.60087        1.90389
H         -1.36983       -0.63939       -4.07967
H         -2.77396       -1.69541       -3.84440
H         -2.99906        0.04549       -4.16154
