41
-26.4594
C         -5.59584       -0.17391       -0.09587
N         -4.39853       -0.71326        0.53779
C         -4.57760       -1.51987        1.73751
C         -3.15606       -0.15769        0.24915
C         -2.97816        0.76501       -0.79528
C         -1.72604        1.29425       -1.12569
C         -0.59889        0.92467       -0.40886
C         -0.74882        0.02380        0.64724
C         -2.00181       -0.51096        0.96109
N          0.69747        1.36740       -0.70592
C          1.06005        2.33889       -1.60279
O          0.31667        3.11435       -2.19159
N          2.41938        2.43022       -1.82465
C          3.45007        1.51485       -1.90344
O          4.59612        1.94363       -2.07627
C          3.17894        0.02410       -1.78686
C          3.35763       -0.53507       -0.39448
C          4.49792       -0.23625        0.36086
C          4.64844       -0.74257        1.65356
C          3.66457       -1.55954        2.20328
C          2.53844       -1.88810        1.45358
C          2.39793       -1.39736        0.15320
H         -5.72538        0.88679        0.14617
H         -5.54499       -0.29533       -1.18362
H         -6.49807       -0.70087        0.23052
H         -4.34171       -0.94368        2.63939
H         -3.94179       -2.41270        1.70166
H         -5.60595       -1.87936        1.83412
H         -3.81753        1.09969       -1.39830
H         -1.67377        1.98917       -1.95735
H          0.09973       -0.28769        1.24712
H         -2.04328       -1.21819        1.78316
H          1.42352        1.05427       -0.08124
H          2.67997        3.32357       -2.22541
H          3.88585       -0.48666       -2.45360
H          2.18617       -0.20266       -2.19030
H          5.28357        0.39844       -0.04762
H          5.53554       -0.49329        2.22957
H          3.77809       -1.94272        3.21477
H          1.76669       -2.52241        1.88347
H          1.51148       -1.67297       -0.41808
