24
-24.9486
C         -0.42862       -0.61029       -0.41164
C         -1.19934       -1.34603        0.71201
O         -2.26433       -0.98264        1.18614
O         -0.62162       -2.50661        1.10066
C          0.84487        0.10350        0.06333
C          1.90782       -0.82218        0.65152
C          3.20515       -0.09902        0.88674
O          3.47617        1.05433        0.60656
O          4.12522       -0.90498        1.45135
N         -1.35374        0.26862       -1.14084
C         -1.84432        1.44034       -0.58480
O         -1.38841        1.97285        0.42156
C         -3.03244        1.99997       -1.31207
H         -0.15497       -1.37135       -1.15584
H          0.18961       -2.76153        0.62674
H          1.27346        0.64636       -0.78979
H          0.61080        0.85358        0.82158
H          2.10631       -1.65916       -0.02752
H          1.57113       -1.21291        1.61972
H          4.90879       -0.32803        1.56289
H         -1.94961       -0.16690       -1.83179
H         -3.92141        1.41706       -1.05601
H         -3.18881        3.03929       -1.00756
H         -2.87172        1.97573       -2.39292
