39
-59.0225
S          0.79715        0.14528        1.89595
O          0.40946        1.44741        1.39759
O         -0.01646       -0.53079        2.89306
N          2.29387        0.25546        2.57979
C          3.38520        0.91076        2.00543
O          3.36163        1.36313        0.87309
C          4.59725        0.92630        2.90461
C          5.76919        1.62845        2.25175
C          0.94970       -0.94677        0.53035
C         -0.04056       -0.95024       -0.45101
N         -1.19474       -0.16744       -0.29313
C         -2.44569       -0.27236       -0.90015
C         -3.09364        0.90547       -1.26523
C         -4.30233        0.87015       -1.96169
C         -4.85771       -0.37298       -2.29445
C         -4.22228       -1.55752       -1.92666
C         -3.02094       -1.50397       -1.22915
C         -4.97255        2.15146       -2.37147
F         -4.38742        3.26622       -1.85077
F         -6.27745        2.20077       -1.98569
F         -4.97111        2.32650       -3.72172
C          0.11926       -1.81943       -1.53574
C          1.23409       -2.63567       -1.59275
N          2.18999       -2.65252       -0.64451
C          2.02959       -1.79937        0.39721
H          2.32932       -0.12933        3.51981
H          4.86384       -0.11177        3.13382
H          4.32898        1.42735        3.84100
H          6.04946        1.13056        1.31743
H          6.63547        1.62477        2.91836
H          5.51656        2.66699        2.01483
H         -1.04224        0.72798        0.17898
H         -2.63329        1.86485       -1.02338
H         -5.79512       -0.42092       -2.84474
H         -4.65564       -2.52035       -2.18228
H         -2.53835       -2.43156       -0.93105
H         -0.60071       -1.85096       -2.34713
H          1.38222       -3.31379       -2.42991
H          2.82600       -1.85211        1.12958
