24
-36.1791
C         -0.16829       -0.96166       -0.05830
C         -1.32877       -1.87547        0.36481
O         -2.49037       -1.79726       -0.01315
O         -0.93596       -2.89900        1.14678
C          0.72876       -0.56411        1.12455
C          1.82442        0.43307        0.74443
C          2.79965       -0.12945       -0.26508
O          2.83084       -1.28992       -0.65066
O          3.67556        0.79381       -0.71390
N         -0.69470        0.17264       -0.82456
C         -1.49557        1.12163       -0.22474
O         -1.61290        1.24311        0.99000
C         -2.25530        1.98269       -1.19390
H          0.41041       -1.55239       -0.77703
H         -1.75297       -3.41426        1.30634
H          1.18545       -1.46769        1.54982
H          0.12561       -0.13692        1.93395
H          2.39135        0.70237        1.64235
H          1.37517        1.34402        0.33407
H          3.54925        1.68010       -0.31735
H         -0.82046        0.01762       -1.81721
H         -2.51960        2.92517       -0.70606
H         -3.17036        1.46672       -1.49805
H         -1.65122        2.20516       -2.07713
