24
-35.1474
C         -0.47441       -0.99287       -0.46357
C         -1.00796       -1.86916        0.67167
O         -1.98893       -1.62179        1.35941
O         -0.30607       -3.00100        0.86422
C          1.03256       -0.72822       -0.34149
C          1.42841       -0.00494        0.94955
C          2.90366        0.32410        0.97410
O          3.70813        0.04056        0.10309
O          3.26330        0.97418        2.10531
N         -1.25150        0.24914       -0.49286
C         -1.28282        1.04883       -1.60785
O         -0.61080        0.84183       -2.61202
C         -2.21362        2.22381       -1.48690
H         -0.67809       -1.52455       -1.40098
H         -0.77695       -3.47623        1.58155
H          1.37096       -0.13688       -1.20101
H          1.57795       -1.67879       -0.39884
H          1.21140       -0.63905        1.81588
H          0.87334        0.93461        1.04338
H          2.52467        1.13720        2.72166
H         -1.98285        0.35465        0.20562
H         -3.23964        1.87205       -1.35218
H         -2.16332        2.82541       -2.39921
H         -1.91741        2.84709       -0.63855
