66
-2.73766
C          0.44992       -0.12514        0.06674
C          0.73649       -1.25674       -0.94096
C         -0.41675       -2.24133       -0.95614
C         -1.31206       -2.30651       -2.03079
C         -2.49627       -3.04446       -1.92319
C         -2.79321       -3.71456       -0.74462
C         -1.85710       -3.74519        0.28867
C         -0.68244       -2.99924        0.18761
O         -3.97012       -4.36727       -0.53001
C         -5.16475       -3.57855       -0.65847
C         -5.36983       -2.55314        0.46672
C         -4.58833       -1.25182        0.26673
C         -4.81880       -0.26260        1.38949
O         -5.63697       -0.46231        2.30279
N         -4.11803        0.90191        1.36181
C         -3.08784        1.30325        0.42014
C         -1.68113        0.85927        0.85049
O         -1.26555        0.92750        2.00295
N         -0.87378        0.46747       -0.19769
C         -3.09611        2.81547        0.22256
C         -2.89661        3.57582        1.52299
O         -3.46589        3.29101        2.56853
N         -2.08023        4.66456        1.43769
C          1.49887        0.99945        0.06022
O          1.47904        1.70805       -1.19670
C          2.93078        0.52027        0.29314
N          3.48156       -0.00801       -0.96166
S          4.99402       -0.70434       -0.97294
O          4.98247       -1.76424        0.00523
O          5.29718       -0.94562       -2.37131
C          6.06386        0.58728       -0.39757
C          6.23983        0.78609        0.97207
C          7.08273        1.80370        1.42068
C          7.76146        2.60531        0.50022
C          7.60008        2.38722       -0.86930
C          6.75617        1.37102       -1.31957
H          0.43252       -0.55088        1.07924
H          1.65012       -1.78650       -0.64955
H          0.89614       -0.83721       -1.94172
H         -1.11038       -1.75372       -2.94429
H         -3.19153       -3.07821       -2.75437
H         -2.06872       -4.30456        1.19590
H          0.01726       -2.97128        1.02145
H         -5.23667       -3.09436       -1.63893
H         -5.97860       -4.31627       -0.60318
H         -6.43626       -2.29298        0.51362
H         -5.10705       -3.00271        1.43111
H         -3.51290       -1.43964        0.22475
H         -4.88459       -0.78421       -0.67818
H         -4.23503        1.50845        2.17648
H         -3.31170        0.83207       -0.54389
H         -1.32473        0.17503       -1.05759
H         -2.33465        3.10474       -0.50673
H         -4.07676        3.10893       -0.16932
H         -1.60411        4.94003        0.59230
H         -1.93047        5.21588        2.27631
H          1.21923        1.70880        0.85118
H          0.54818        1.94495       -1.34473
H          3.52933        1.38177        0.59893
H          2.95929       -0.23966        1.07161
H          3.29941        0.56618       -1.78531
H          5.70988        0.15890        1.68301
H          7.21261        1.96895        2.48743
H          8.41992        3.39742        0.85115
H          8.13206        3.00607       -1.58800
H          6.63554        1.19046       -2.38523
