41
-33.9748
C         -6.04317       -0.28227        1.98588
N         -5.65893        0.33039        0.71392
C         -6.59338        0.07344       -0.38113
C         -4.29061        0.39026        0.41732
C         -3.78043        0.10596       -0.85562
C         -2.41685        0.21664       -1.15303
C         -1.50541        0.62016       -0.18442
C         -1.98682        0.91877        1.09057
C         -3.35588        0.81041        1.37704
N         -0.12427        0.75382       -0.42312
C          0.54858        0.51021       -1.59396
O          0.06745        0.12638       -2.65771
N          1.90837        0.71718       -1.56152
C          2.68971        1.14180       -0.50741
O          2.22494        1.44553        0.59480
C          4.18156        1.18540       -0.79991
C          4.91284       -0.04002       -0.30491
C          4.69587       -0.52123        0.99514
C          5.37471       -1.64439        1.46460
C          6.29576       -2.29237        0.64760
C          6.54051       -1.81336       -0.63824
C          5.85748       -0.68914       -1.11238
H         -5.46692        0.08544        2.83865
H         -5.94558       -1.37272        1.93838
H         -7.09078       -0.04573        2.20455
H         -6.44085        0.77816       -1.20632
H         -7.62447        0.21657       -0.03930
H         -6.50211       -0.95357       -0.75207
H         -4.42719       -0.21329       -1.66505
H         -2.10962       -0.01911       -2.16582
H         -1.31630        1.25722        1.87653
H         -3.68606        1.10864        2.37070
H          0.45385        1.06174        0.35741
H          2.34357        0.48452       -2.44226
H          4.34020        1.32296       -1.87646
H          4.59417        2.07557       -0.31035
H          3.98852       -0.02725        1.65941
H          5.18108       -2.00860        2.47002
H          6.82530       -3.16709        1.01603
H          7.26628       -2.31729       -1.27188
H          6.07489       -0.32975       -2.11568
