39
-5.52455
N         -2.95854        1.33439       -1.28842
C         -1.73101        1.04540       -1.74832
N         -0.79307        0.25588       -1.14902
C         -1.08482       -0.32695        0.04983
C         -2.34784       -0.07397        0.60819
C         -3.19418        0.74165       -0.11274
O         -4.35712        0.85128        0.59110
C         -4.14681        0.09037        1.70758
N         -2.96026       -0.49014        1.77397
C         -5.26394        0.02519        2.66787
N         -0.17993       -1.13512        0.69119
C          1.16352       -1.50957        0.26054
C          1.22495       -2.02815       -1.17739
C          2.12139       -1.25338       -2.11305
O          3.17062       -1.69180       -2.55915
O          1.62891       -0.05258       -2.46962
C          2.22886       -0.50365        0.65682
C          3.51317       -0.97834        0.97625
C          4.54936       -0.09542        1.27976
C          4.32077        1.27743        1.26583
C          3.05884        1.76722        0.94343
C          2.02202        0.88380        0.63990
C         -1.36527        1.65920       -3.06593
H         -5.01146       -0.61247        3.52135
H         -6.16073       -0.38466        2.19068
H         -5.50243        1.02430        3.04825
H         -0.46077       -1.42641        1.62556
H          1.36654       -2.39006        0.89056
H          1.62536       -3.05323       -1.16212
H          0.23718       -2.13039       -1.64199
H          0.79750        0.14532       -1.97038
H          3.72158       -2.04688        0.96973
H          5.53754       -0.48142        1.51484
H          5.12809        1.96627        1.49722
H          2.87960        2.83892        0.91754
H          1.05928        1.30593        0.37187
H         -0.36010        1.37430       -3.38544
H         -2.07359        1.32830       -3.83104
H         -1.40322        2.74944       -2.98526
