24
-42.7731
C         -0.53957       -1.01119       -0.41070
C         -1.05254       -1.89575        0.72659
O         -1.99421       -1.63762        1.46158
O         -0.38466       -3.05724        0.84953
C          0.96474       -0.73117       -0.30194
C          1.35490        0.04433        0.95761
C          2.81831        0.39391        0.95676
O          3.63472        0.18863        0.07758
O          3.18380        1.00620        2.10181
N         -1.33268        0.21855       -0.44180
C         -1.36630        1.01796       -1.55716
O         -0.69190        0.80805       -2.55891
C         -2.30244        2.18662       -1.44580
H         -0.74284       -1.54670       -1.34717
H         -0.83586       -3.53011        1.58032
H          1.52010       -1.67783       -0.32587
H          1.29519       -0.16941       -1.18480
H          1.15065       -0.56006        1.84789
H          0.79084        0.98068        1.02310
H          4.13848        1.18982        1.97512
H         -2.01713        0.35332        0.29770
H         -2.26583        2.76528       -2.37338
H         -3.32580        1.83236       -1.29208
H         -1.99996        2.83137       -0.61599
