24
-42.2271
C         -0.45722       -0.53070       -0.30439
C         -0.94651       -1.78773        0.41147
O         -1.93662       -1.87216        1.12488
O         -0.16222       -2.86341        0.20175
C          0.70307        0.14281        0.43833
C          1.97222       -0.71090        0.49040
C          3.11473        0.03241        1.12370
O          3.06397        1.08300        1.74250
O          4.28118       -0.62969        0.99031
N         -1.60495        0.37600       -0.40495
C         -1.69041        1.33931       -1.37882
O         -0.81710        1.52574       -2.21931
C         -2.95562        2.15001       -1.32873
H         -0.16448       -0.80299       -1.32526
H         -0.58052       -3.58293        0.72040
H          0.39396        0.39960        1.46067
H          0.94076        1.09600       -0.05156
H          2.26609       -0.99988       -0.52434
H          1.80934       -1.61106        1.09054
H          4.93250       -0.06461        1.45724
H         -2.36627        0.24982        0.25562
H         -3.82269        1.49705       -1.45681
H         -3.02566        2.67915       -0.37464
H         -2.94756        2.88516       -2.13898
