39
-58.7449
S          1.06460        0.85328        1.66475
O          1.22597        2.28810        1.66602
O         -0.04166        0.23638        2.37334
N          2.40366        0.11744        2.32796
C          3.71194        0.62054        2.26758
O          4.04829        1.50725        1.49838
C          4.66579       -0.04347        3.23033
C          6.10006        0.38348        2.97987
C          1.00539        0.28620       -0.00003
C         -0.16674       -0.21300       -0.57427
N         -1.41321       -0.15149        0.08414
C         -2.71827       -0.22873       -0.42112
C         -3.04794        0.23271       -1.69938
C         -4.31695        0.02147       -2.25172
C         -5.28390       -0.64018       -1.48467
C         -4.97946       -1.08066       -0.19502
C         -3.70263       -0.87826        0.32948
C         -4.62768        0.50208       -3.64572
F         -5.54688        1.50384       -3.65904
F         -5.13159       -0.48441       -4.43831
F         -3.53786        0.98384       -4.30901
C         -0.06671       -0.71527       -1.88198
C          1.14540       -0.68985       -2.54715
N          2.26975       -0.19340       -2.00916
C          2.17071        0.29587       -0.75145
H          2.15720       -0.59212        3.01220
H          4.57890       -1.13039        3.12510
H          4.36291        0.23427        4.24509
H          6.20537        1.47157        3.05564
H          6.77005       -0.07725        3.71109
H          6.42679        0.08772        1.97705
H         -1.36628       -0.10137        1.10628
H         -2.30511        0.77706       -2.28051
H         -6.27658       -0.81628       -1.88866
H         -5.73023       -1.59692        0.39677
H         -3.47091       -1.25549        1.32264
H         -0.92155       -1.14881       -2.39275
H          1.23976       -1.07357       -3.55897
H          3.09960        0.70782       -0.38479
