66
-10.6356
C          0.52345        0.86154        0.34979
C          0.94800        0.32065       -1.02842
C          0.16501       -0.93007       -1.37721
C          0.30603       -2.08206       -0.59835
C         -0.56535       -3.16123       -0.76217
C         -1.59540       -3.08758       -1.69669
C         -1.67151       -1.99761       -2.55554
C         -0.79892       -0.91649       -2.39168
O         -2.48478       -4.11948       -1.72820
C         -3.86396       -3.76079       -1.53172
C         -4.20531       -3.33766       -0.09546
C         -3.88775       -1.86718        0.21630
C         -4.18351       -1.52413        1.65892
O         -4.65515       -2.34216        2.46569
N         -3.91739       -0.25536        2.08616
C         -3.16580        0.77772        1.36271
C         -1.66471        0.46984        1.44650
O         -1.15511       -0.19099        2.36203
N         -0.92870        1.02092        0.43535
C         -3.47622        2.13108        1.99138
C         -3.03726        3.29576        1.13294
O         -2.65987        3.19958       -0.02478
N         -3.10684        4.51119        1.75615
C          1.16669        2.20448        0.72005
O          0.68371        3.20442       -0.19908
C          2.70094        2.18216        0.69816
N          3.18446        2.31971       -0.68529
S          4.83321        2.26231       -0.97176
O          4.99282        2.53008       -2.38400
O          5.46476        3.08708        0.03126
C          5.25338        0.57484       -0.66944
C          5.70888        0.19550        0.59401
C          6.05894       -1.13349        0.83219
C          5.96891       -2.07174       -0.19710
C          5.53192       -1.68064       -1.46482
C          5.18047       -0.35231       -1.70466
H          0.81171        0.13195        1.11322
H          0.79846        1.08692       -1.79961
H          2.01672        0.07317       -1.00855
H          1.07019       -2.11575        0.17479
H         -0.47564       -4.03398       -0.12099
H         -2.42082       -1.97481       -3.33744
H         -0.89973       -0.04672       -3.03525
H         -4.41396       -4.68791       -1.75449
H         -4.20336       -3.00588       -2.24825
H         -5.28220       -3.48366        0.06724
H         -3.68397       -3.99055        0.61414
H         -4.47716       -1.21252       -0.43258
H         -2.83411       -1.64923        0.04553
H         -3.91863       -0.18373        3.09803
H         -3.46767        0.76596        0.31204
H         -1.34958        1.74557       -0.15122
H         -4.56338        2.20740        2.10719
H         -3.03377        2.20771        2.98984
H         -2.94030        5.34254        1.19740
H         -3.56966        4.62725        2.64780
H          0.81951        2.45589        1.73313
H          0.69943        4.06518        0.24969
H          3.07371        3.02391        1.28988
H          3.07213        1.25292        1.12770
H          2.77240        3.11405       -1.18391
H          5.78459        0.93416        1.38805
H          6.40424       -1.43413        1.81837
H          6.24377       -3.10867       -0.01424
H          5.46783       -2.40805       -2.26958
H          4.85126       -0.03687       -2.69117
