41
-25.0483
C         -4.95799       -1.69835        0.31485
N         -4.29533       -0.57239        0.95090
C         -5.06316        0.25396        1.86490
C         -3.10508       -0.09171        0.42537
C         -2.52131        1.09421        0.89463
C         -1.30533        1.55786        0.39007
C         -0.64050        0.85600       -0.61339
C         -1.20758       -0.31493       -1.09816
C         -2.41957       -0.77988       -0.58607
N          0.58751        1.36755       -1.08079
C          1.26740        0.97569       -2.21969
O          0.84530        0.19294       -3.07201
N          2.48325        1.60409       -2.41435
C          3.55164        1.88288       -1.59716
O          4.61778        2.28025       -2.10911
C          3.47639        1.65896       -0.09273
C          3.39800        0.19855        0.27401
C          4.30756       -0.70349       -0.28728
C          4.24706       -2.06283        0.01440
C          3.27405       -2.53630        0.89471
C          2.36781       -1.64401        1.46894
C          2.43346       -0.28225        1.16470
H         -4.31431       -2.58350        0.33653
H         -5.87813       -1.95098        0.84759
H         -5.21380       -1.47913       -0.72746
H         -4.47550        0.47975        2.76020
H         -5.96470       -0.27060        2.19004
H         -5.36331        1.19807        1.39795
H         -3.00551        1.69098        1.66594
H         -0.89166        2.47571        0.79605
H         -0.72121       -0.89264       -1.87631
H         -2.81778       -1.69813       -1.01296
H          0.86329        2.25412       -0.68524
H          2.79154        1.51809       -3.37260
H          4.40494        2.07683        0.33769
H          2.66449        2.23378        0.36202
H          5.06997       -0.33723       -0.97198
H          4.96195       -2.74518       -0.43685
H          3.22545       -3.59496        1.13262
H          1.60699       -2.01031        2.15428
H          1.71594        0.39855        1.61575
