39
-2.7609
N         -2.13045        2.15788        0.62669
C         -0.89249        2.02987        0.12073
N         -0.28976        0.87607       -0.26475
C         -0.93177       -0.30766       -0.10164
C         -2.23781       -0.27504        0.40671
C         -2.74171        0.97135        0.72596
O         -4.01587        0.78966        1.17875
C         -4.20315       -0.56795        1.11352
N         -3.16906       -1.25442        0.66888
C         -5.52597       -1.06016        1.54717
N         -0.31465       -1.48563       -0.45011
C          1.09197       -1.66369       -0.79199
C          1.29287       -1.71550       -2.30942
C          1.04222       -0.53040       -3.21482
O          1.10184       -0.65958       -4.43266
O          0.84367        0.67656       -2.67259
C          2.06779       -0.83339        0.03379
C          1.97740       -0.86260        1.43867
C          2.85268       -0.12218        2.23364
C          3.84569        0.65136        1.64033
C          3.96127        0.68570        0.25493
C          3.08414       -0.05363       -0.54105
C         -0.07315        3.27541       -0.02629
H         -5.70589       -0.79562        2.59268
H         -5.58342       -2.14938        1.45384
H         -6.31905       -0.62223        0.93433
H         -0.86191       -2.32079       -0.25690
H          1.32223       -2.69201       -0.47310
H          2.33068       -2.01660       -2.50121
H          0.64859       -2.51237       -2.69825
H          0.68303        0.69940       -1.70080
H          1.20085       -1.45399        1.92167
H          2.75459       -0.14655        3.31566
H          4.53011        1.22793        2.25639
H          4.73415        1.28887       -0.21472
H          3.21782        0.01134       -1.61781
H         -0.69329        4.16729        0.09647
H          0.38520        3.30390       -1.01987
H          0.72058        3.28880        0.72722
