66
-9.09803
C          0.57515        0.29700        0.12001
C          0.78089       -0.80697       -0.94600
C         -0.30703       -1.86594       -0.92886
C         -0.64498       -2.53651        0.25235
C         -1.80565       -3.31158        0.32404
C         -2.61530       -3.44843       -0.79599
C         -2.20697       -2.92180       -2.01824
C         -1.06231       -2.12066       -2.08025
O         -3.84497       -4.04883       -0.73980
C         -4.77463       -3.32823        0.09754
C         -5.03059       -1.89899       -0.41294
C         -5.66417       -0.98431        0.63102
C         -4.86900       -0.95076        1.91834
O         -5.16247       -1.71879        2.85332
N         -3.80106       -0.13152        2.05739
C         -3.12219        0.72957        1.07079
C         -1.62676        0.42561        1.23530
O         -1.17457       -0.05757        2.28908
N         -0.82122        0.73273        0.17821
C         -3.43584        2.18723        1.36362
C         -2.96897        3.09925        0.24774
O         -2.54531        2.71102       -0.82914
N         -3.07615        4.43436        0.52698
C          1.45904        1.53989       -0.09284
O          1.08755        2.24622       -1.28886
C          2.96310        1.22004       -0.08417
N          3.45281        0.87138       -1.43502
S          4.66878       -0.30207       -1.55037
O          5.01297       -0.35934       -2.95270
O          4.22556       -1.46172       -0.81145
C          6.02426        0.43065       -0.66440
C          6.38176       -0.08492        0.58245
C          7.42416        0.49931        1.30551
C          8.11154        1.59070        0.77408
C          7.76387        2.09116       -0.48347
C          6.72333        1.50633       -1.21094
H          0.82259       -0.12766        1.10004
H          0.80505       -0.34453       -1.94021
H          1.75282       -1.28619       -0.79489
H         -0.04290       -2.40125        1.14796
H         -2.09183       -3.77678        1.25992
H         -2.82110       -3.07157       -2.90186
H         -0.78328       -1.66104       -3.02523
H         -5.70901       -3.90671        0.08025
H         -4.42480       -3.32753        1.13296
H         -4.08801       -1.45955       -0.73925
H         -5.65962       -1.93983       -1.31179
H         -5.78169        0.03028        0.22826
H         -6.67171       -1.34652        0.87769
H         -3.24536       -0.32173        2.89343
H         -3.44181        0.46038        0.06408
H         -1.16129        1.33826       -0.57488
H         -4.52237        2.30091        1.44785
H         -2.99782        2.49902        2.31710
H         -3.52720        4.77682        1.36360
H         -2.85395        5.10067       -0.20652
H          1.23832        2.22687        0.73378
H          1.47999        1.74623       -2.02769
H          3.51475        2.10439        0.24913
H          3.15535        0.40481        0.61319
H          3.72535        1.67004       -2.00772
H          5.84455       -0.93693        0.99283
H          7.69469        0.10192        2.28135
H          8.92380        2.04845        1.33675
H          8.30661        2.93710       -0.89907
H          6.46525        1.88814       -2.19335
