39
-1.52441
N         -3.29789       -1.70341       -1.21752
C         -2.10923       -1.56754       -1.82783
N         -1.09438       -0.75329       -1.45178
C         -1.21886        0.02004       -0.34114
C         -2.42122       -0.06431        0.37126
C         -3.37897       -0.92467       -0.13272
O         -4.46656       -0.84858        0.68627
C         -4.10204        0.05999        1.64345
N         -2.88947        0.56187        1.50903
C         -5.11080        0.34427        2.68374
N         -0.20369        0.87535        0.04175
C          1.09501        0.85285       -0.60430
C          1.43888        2.27890       -1.03839
C          2.73703        2.52168       -1.77094
O          3.03449        3.64599       -2.16297
O          3.56697        1.48998       -1.99611
C          2.10131        0.20711        0.33660
C          2.41521       -1.15654        0.17363
C          3.39510       -1.76301        0.96082
C          4.06431       -1.02263        1.93174
C          3.74992        0.32071        2.12108
C          2.77110        0.93088        1.33474
C         -1.88586       -2.37714       -3.06958
H         -4.73148        1.08079        3.39835
H         -5.36036       -0.56915        3.23117
H         -6.02464        0.74190        2.23250
H         -0.29558        1.27829        0.96818
H          1.07657        0.25710       -1.52765
H          0.64699        2.61838       -1.72238
H          1.41815        2.95807       -0.17834
H          3.36323        0.62411       -1.60162
H          1.90212       -1.75264       -0.58027
H          3.63779       -2.81306        0.81684
H          4.82759       -1.49338        2.54643
H          4.27211        0.89837        2.88035
H          2.55566        1.98267        1.50759
H         -0.88529       -2.82047       -3.05543
H         -2.61801       -3.18472       -3.14567
H         -1.97521       -1.73476       -3.95086
