24
-37.8771
C         -0.34801       -0.96335       -0.26004
C         -1.43381       -1.74113        0.50298
O         -2.63566       -1.71779        0.27673
O         -0.94389       -2.61328        1.40628
C          0.81782       -0.50168        0.62610
C          1.93946        0.14515       -0.18585
C          3.10800        0.55107        0.66892
O          3.69272        1.62066        0.62242
O          3.55703       -0.43593        1.46609
N         -0.98011        0.10278       -1.04502
C         -1.59808        1.17454       -0.43172
O         -1.49704        1.43048        0.75983
C         -2.47256        1.97843       -1.35479
H          0.04511       -1.66804       -1.00476
H         -1.74727       -3.03143        1.78211
H          0.48189        0.18819        1.40796
H          1.22136       -1.36928        1.16392
H          2.31018       -0.53706       -0.95913
H          1.57077        1.04763       -0.68565
H          4.32697       -0.03762        1.92418
H         -1.33891       -0.16412       -1.95243
H         -3.50317        1.62086       -1.26690
H         -2.14700        1.88899       -2.39370
H         -2.42579        3.03192       -1.06753
