66
-4.55735
C          0.70600       -0.90162        1.14347
C          1.01864       -1.93289        0.04407
C         -0.25839       -2.58932       -0.44570
C         -0.82493       -2.23973       -1.68022
C         -2.10058       -2.69137       -2.03565
C         -2.82865       -3.48025       -1.15445
C         -2.23863       -3.90814        0.03498
C         -0.96468       -3.45609        0.39166
O         -4.10936       -3.87969       -1.39203
C         -5.06949       -2.84381       -1.67452
C         -5.42649       -1.98123       -0.45448
C         -4.42979       -0.84619       -0.19802
C         -4.62988       -0.18524        1.14666
O         -5.60752       -0.41922        1.87489
N         -3.67760        0.69601        1.56827
C         -2.50630        1.13574        0.82000
C         -1.26091        0.58112        1.51641
O         -1.08659        0.63979        2.72510
N         -0.32857        0.02713        0.66933
C         -2.43655        2.64766        0.73428
C         -3.56074        3.12760       -0.15357
O         -4.10934        2.42983       -1.00423
N         -3.91695        4.43019        0.01123
C          1.96819       -0.16402        1.62272
O          1.67547        0.67410        2.76117
C          2.62226        0.72956        0.55760
N          3.66978        1.50889        1.23692
S          4.50534        2.68191        0.39082
O          5.11797        3.51154        1.40873
O          3.61131        3.23156       -0.59889
C          5.79450        1.80428       -0.43553
C          7.05803        1.73129        0.14830
C          8.08744        1.06203       -0.51317
C          7.85517        0.48884       -1.76502
C          6.59583        0.58985       -2.36035
C          5.56475        1.25978       -1.69918
H          0.29441       -1.42827        2.01751
H          1.70296       -2.69075        0.44161
H          1.52486       -1.44570       -0.79740
H         -0.29034       -1.58041       -2.35888
H         -2.53138       -2.40154       -2.98739
H         -2.79090       -4.55919        0.70793
H         -0.53206       -3.75411        1.34447
H         -4.76992       -2.21796       -2.52161
H         -5.96989       -3.39591       -1.98316
H         -5.50325       -2.62095        0.43179
H         -6.41427       -1.52596       -0.60800
H         -3.40590       -1.22478       -0.20932
H         -4.50999       -0.08955       -0.98098
H         -3.75996        0.99232        2.53625
H         -2.55254        0.73641       -0.19324
H         -0.57793       -0.04159       -0.30805
H         -2.50595        3.09719        1.72979
H         -1.48360        2.95418        0.28639
H         -3.41425        5.06336        0.61735
H         -4.62164        4.81757       -0.60814
H          2.70107       -0.90307        1.96682
H          0.70632        0.64245        2.91982
H          1.87020        1.40985        0.14464
H          3.06943        0.14193       -0.24258
H          3.32386        1.89984        2.12337
H          7.23010        2.19238        1.11776
H          9.06856        0.99035       -0.05080
H          8.65931       -0.03290       -2.27951
H          6.41811        0.14944       -3.33844
H          4.58586        1.35550       -2.15964
