45
-4.34083
O         -4.57638       -2.35319        1.14672
N         -4.90088       -1.39154        0.22554
C         -3.77171       -0.71366       -0.03772
C         -2.66489       -1.27798        0.68186
C         -1.23748       -0.97558        0.72355
O         -0.54078       -1.41439        1.63468
N         -0.74637       -0.20449       -0.31389
C          0.57693        0.18534       -0.43743
C          1.02127        1.04513       -1.41647
N          2.37272        1.23303       -1.24858
C          3.18737        2.09094       -2.08168
C          2.82222        0.48962       -0.17367
C          1.70721       -0.16508        0.33487
C          4.19054        0.43751        0.29223
O          5.13026        1.06662       -0.17906
O          4.29048       -0.42060        1.34258
C          5.60869       -0.54097        1.88291
C          5.54010       -1.50816        3.04644
C         -3.25458       -2.28373        1.43418
C         -2.78254       -3.27690        2.42437
C         -3.84320        0.42403       -0.95364
C         -4.47068        0.27380       -2.20005
C         -4.57311        1.35284       -3.08040
C         -4.05394        2.59458       -2.72189
C         -3.43821        2.75927       -1.48052
C         -3.33824        1.68141       -0.59582
H         -1.36364        0.11106       -1.04661
H          0.49021        1.55397       -2.20968
H          4.07951        1.54413       -2.39559
H          3.45338        2.98104       -1.50474
H          2.61815        2.37750       -2.96892
H          1.73125       -0.83733        1.18437
H          5.95881        0.43765        2.23033
H          6.29034       -0.92673        1.11672
H          5.16289       -2.48060        2.71272
H          6.52309       -1.64503        3.50362
H          4.84148       -1.14117        3.80644
H         -3.39361       -3.23225        3.33193
H         -1.74613       -3.11680        2.72520
H         -2.85658       -4.28823        2.01265
H         -4.89948       -0.68552       -2.48637
H         -5.07096        1.22575       -4.03913
H         -4.14358        3.43740       -3.40328
H         -3.05142        3.73535       -1.19641
H         -2.87851        1.84198        0.37765
