39
-55.7627
S          1.49121        1.25822        0.66170
O          0.93652        2.29675       -0.18746
O          0.90391        1.01052        1.95532
N          3.10206        1.59027        0.79376
C          3.96836        1.33070        1.85815
O          5.05623        1.92264        1.85062
C          3.58868        0.31267        2.90055
C          4.73841        0.01610        3.85588
C          1.42242       -0.24349       -0.26456
C          0.20672       -0.59941       -0.84071
N         -0.91438        0.19558       -0.59230
C         -2.25052       -0.10331       -0.81848
C         -3.06896        0.86607       -1.38075
C         -4.40316        0.58681       -1.66658
C         -4.91047       -0.68716       -1.39316
C         -4.09212       -1.66445       -0.83563
C         -2.76406       -1.37495       -0.55507
C         -5.27910        1.63014       -2.28116
F         -5.62984        1.31990       -3.55935
F         -6.44489        1.80578       -1.60072
F         -4.68165        2.85289       -2.33620
C          0.13691       -1.77598       -1.59458
C          1.28433       -2.53327       -1.73125
N          2.47353       -2.20341       -1.18622
C          2.52249       -1.05168       -0.47412
H          3.41166        2.31017        0.15691
H          3.27275       -0.60777        2.40002
H          2.73799        0.70081        3.46412
H          5.06377        0.92784        4.37109
H          5.60651       -0.38251        3.31775
H          4.44368       -0.71557        4.61516
H         -0.70480        1.19023       -0.48466
H         -2.66138        1.85303       -1.59468
H         -5.94930       -0.90214       -1.62044
H         -4.49068       -2.64968       -0.61796
H         -2.12339       -2.12912       -0.10152
H         -0.77483       -2.07830       -2.10279
H          1.27211       -3.45073       -2.30842
H          3.50329       -0.82418       -0.07224
