24
-33.8724
C         -0.05970        0.09439       -0.10300
C         -0.59502       -1.32950       -0.27314
O         -1.70675       -1.73181        0.04022
O          0.33630       -2.18863       -0.73823
C          0.68221        0.23834        1.23249
C          1.90169       -0.67746        1.39706
C          2.97748       -0.40552        0.36891
O          2.98485        0.54278       -0.39799
O          3.97629       -1.31179        0.40324
N         -1.21195        1.00427       -0.14820
C         -1.82260        1.22855       -1.36087
O         -1.35106        0.85131       -2.43190
C         -3.14358        1.93708       -1.27970
H          0.58514        0.32878       -0.95619
H         -0.13960       -3.04082       -0.82676
H         -0.01160        0.04189        2.06150
H          1.00195        1.28249        1.34267
H          2.34222       -0.50524        2.38604
H          1.60709       -1.73077        1.35096
H          3.85453       -2.01391        1.07016
H         -1.79564        1.05718        0.67773
H         -3.84949        1.35030       -0.68593
H         -3.54894        2.04905       -2.28967
H         -3.01383        2.92904       -0.83942
