39
-57.0639
S          0.68137        0.19051        1.95946
O          0.29113        1.34451        1.18531
O         -0.07203       -0.17389        3.14366
N          2.23408        0.40833        2.49253
C          3.27779        0.88918        1.69816
O          3.17593        1.03013        0.48906
C          4.54695        1.13715        2.47542
C          5.66250        1.64874        1.58721
C          0.68412       -1.23140        0.93275
C         -0.42903       -1.53316        0.14701
N         -1.57243       -0.71395        0.11562
C         -2.22881       -0.17315       -1.00746
C         -3.45128        0.46962       -0.79443
C         -4.21082        0.95236       -1.86680
C         -3.73463        0.77022       -3.17268
C         -2.51023        0.14349       -3.39532
C         -1.76342       -0.31955       -2.31616
C         -5.53205        1.62593       -1.61893
F         -5.77462        1.88257       -0.30245
F         -5.63745        2.82386       -2.25662
F         -6.58234        0.87520       -2.05083
C         -0.36448       -2.66849       -0.66998
C          0.77691       -3.44984       -0.66097
N          1.85058       -3.18503        0.11188
C          1.77789       -2.07873        0.89170
H          2.33210        0.30140        3.49912
H          4.33458        1.86075        3.26965
H          4.84645        0.19114        2.94011
H          6.57306        1.80301        2.17176
H          5.38424        2.59889        1.11964
H          5.88279        0.93396        0.78709
H         -1.69653       -0.10730        0.92461
H         -3.82225        0.58871        0.22362
H         -4.31676        1.12219       -4.02208
H         -2.13463        0.01202       -4.40667
H         -0.79920       -0.77697       -2.51797
H         -1.20059       -2.94620       -1.30391
H          0.85623       -4.32802       -1.29544
H          2.66489       -1.91821        1.49334
