39
-11.9483
N         -2.83274       -1.91319       -0.79893
C         -1.64394       -1.83900       -1.42413
N         -0.71026       -0.87524       -1.27056
C         -0.92026        0.13714       -0.39488
C         -2.12913        0.15231        0.30873
C         -3.00093       -0.88852        0.04510
O         -4.10819       -0.69597        0.82254
C         -3.83508        0.45447        1.51322
N         -2.66787        1.00415        1.25183
C         -4.88496        0.90588        2.44913
N          0.03277        1.11433       -0.21629
C          1.38269        0.94276       -0.73353
C          2.13726        2.26306       -0.61278
C          1.41143        3.34085       -1.35756
O          1.36641        3.48396       -2.56760
O          0.75798        4.18672       -0.53266
C          2.15404       -0.14389        0.01586
C          2.01568       -0.33524        1.39971
C          2.74854       -1.32133        2.06313
C          3.63736       -2.12545        1.35508
C          3.79319       -1.94885       -0.01741
C          3.05736       -0.96468       -0.68210
C         -1.31082       -2.92295       -2.40215
H         -5.81738        1.10160        1.91161
H         -5.07430        0.14204        3.20952
H         -4.58062        1.82554        2.95568
H         -0.14281        1.78144        0.52784
H          1.32191        0.66680       -1.79606
H          2.24966        2.56342        0.43680
H          3.15030        2.18973       -1.02490
H          0.29785        4.81221       -1.13104
H          1.31954        0.27486        1.97220
H          2.61992       -1.46226        3.13310
H          4.20690       -2.89477        1.87257
H          4.48334       -2.58045       -0.57478
H          3.18829       -0.84666       -1.75625
H         -1.21202       -2.49977       -3.40634
H         -0.36553       -3.40122       -2.12669
H         -2.09557       -3.68382       -2.41700
