24
-33.5975
C         -0.21065       -0.60982       -0.00236
C         -1.15035       -1.79850        0.20456
O         -2.33237       -1.75057        0.50975
O         -0.51188       -2.98513        0.09836
C          0.73345       -0.48725        1.19978
C          1.80579        0.58030        0.99582
C          2.88106        0.14324        0.03128
O          3.02887        0.61297       -1.08191
O          3.68855       -0.82124        0.52392
N         -1.02376        0.59774       -0.16319
C         -1.42731        0.96750       -1.42837
O         -1.00805        0.43883       -2.45157
C         -2.43094        2.08643       -1.45278
H          0.35324       -0.79167       -0.92363
H         -1.20600       -3.66196        0.24809
H          0.15164       -0.23846        2.09638
H          1.20588       -1.45685        1.39893
H          2.28544        0.83309        1.94837
H          1.36741        1.51053        0.61825
H          3.48585       -1.08881        1.43959
H         -1.64891        0.83583        0.59861
H         -1.99058        2.99515       -1.03418
H         -2.72421        2.28113       -2.48876
H         -3.32216        1.80753       -0.88494
