39
-59.0579
S          2.81122       -0.28808       -0.58071
O          4.20223       -0.67449       -0.59980
O          2.29247        0.81458       -1.36736
N          2.32435       -0.00038        1.00020
C          2.92953        1.05496        1.71289
O          3.92642        1.63294        1.30657
C          2.21878        1.44650        2.98835
C          3.00045        2.50963        3.74579
C          1.86525       -1.69892       -1.03256
C          0.49332       -1.58780       -1.23622
N         -0.16870       -0.38293       -0.92983
C         -1.52601       -0.15616       -0.70803
C         -2.10426        1.00304       -1.22363
C         -3.47153        1.24332       -1.06960
C         -4.26029        0.30323       -0.39179
C         -3.69309       -0.85431        0.13028
C         -2.32938       -1.07845       -0.02757
C         -4.08962        2.48632       -1.64563
F         -4.93330        2.21160       -2.67570
F         -4.81970        3.17195       -0.72551
F         -3.17391        3.36869       -2.13167
C         -0.20454       -2.72034       -1.66666
C          0.49178       -3.90186       -1.85848
N          1.81858       -4.02465       -1.66248
C          2.48949       -2.90324       -1.26362
H          1.35414       -0.23232        1.19974
H          2.10081        0.55513        3.61362
H          1.22354        1.82570        2.73317
H          4.00281        2.14940        4.00301
H          3.12173        3.41402        3.13883
H          2.48764        2.78671        4.67068
H          0.34982        0.44688       -1.24866
H         -1.48589        1.71547       -1.76836
H         -5.32799        0.47883       -0.26932
H         -4.30332       -1.58338        0.65368
H         -1.89294       -1.98211        0.39022
H         -1.27000       -2.70600       -1.86945
H         -0.01021       -4.80396       -2.18821
H          3.56031       -3.03953       -1.14622
