35
-83.9613
N         -3.80463        0.14015        1.53905
C         -4.18794       -1.10137        1.27075
N         -3.73757       -1.85552        0.26131
C         -2.81456       -1.30348       -0.54070
C         -2.31600       -0.02530       -0.34277
C         -2.86257        0.66385        0.73015
C         -1.24661        0.60597       -1.19266
C          0.16537        0.40071       -0.68998
C          1.09522        1.44256       -0.77736
C          2.40509        1.26608       -0.31415
C          2.79918        0.03992        0.23000
C          1.88648       -1.00543        0.31051
C          0.58325       -0.82311       -0.15585
O          4.10105       -0.02921        0.65101
C          4.54435       -1.25318        1.20777
O          3.37281        2.23679       -0.35229
C          3.00431        3.49477       -0.88549
N         -2.28171       -2.15727       -1.50806
N         -5.11843       -1.67781        2.10871
H         -2.55518        1.67739        0.97903
H         -1.31774        0.25752       -2.23312
H         -1.43649        1.68673       -1.25432
H          0.78444        2.39402       -1.19448
H          2.15356       -1.96864        0.72762
H         -0.10771       -1.65578       -0.07494
H          5.59321       -1.10630        1.47596
H          3.98429       -1.50663        2.11433
H          4.48115       -2.06970        0.48035
H          2.20596        3.95963       -0.29623
H          2.70240        3.41008       -1.93543
H          3.89284        4.12586       -0.82803
H         -2.86491       -2.97784       -1.65202
H         -1.95193       -1.72365       -2.35445
H         -5.55291       -2.51744        1.77259
H         -5.59808       -1.04437        2.72317
