66
-14.8531
C          0.88062       -0.47639       -1.27605
C          0.37545       -1.57994       -2.23655
C         -0.87715       -2.28047       -1.73459
C         -0.94618       -2.81735       -0.44546
C         -2.13717       -3.35796        0.05021
C         -3.27842       -3.38196       -0.74046
C         -3.20961       -2.90731       -2.05022
C         -2.01976       -2.35491       -2.54242
O         -4.48363       -3.87925       -0.34442
C         -4.93452       -3.55884        0.97766
C         -5.58505       -2.16935        1.06720
C         -4.62622       -0.98172        0.89307
C         -3.61848       -0.87798        2.02152
O         -3.74802       -1.51281        3.08151
N         -2.56432       -0.02415        1.89136
C         -2.11635        0.69647        0.68972
C         -0.65190        0.31479        0.46156
O          0.10339       -0.01775        1.38884
N         -0.22374        0.36665       -0.83622
C         -2.27263        2.19630        0.86571
C         -2.10620        2.91429       -0.45799
O         -2.09384        2.35170       -1.54621
N         -1.98539        4.26878       -0.36125
C          1.97950        0.37191       -1.92142
O          3.01093       -0.44060       -2.50546
C          2.60393        1.33334       -0.89434
N          3.63218        2.10934       -1.58845
S          4.63147        3.14986       -0.74822
O          5.72325        3.44419       -1.64774
O          3.80604        4.18955       -0.17067
C          5.26756        2.15823        0.58078
C          6.34994        1.30542        0.36735
C          6.83911        0.53637        1.42613
C          6.25693        0.63441        2.69229
C          5.18747        1.50512        2.90458
C          4.69692        2.27405        1.84918
H          1.29942       -0.96452       -0.38721
H          1.17260       -2.31602       -2.40717
H          0.16149       -1.12143       -3.21251
H         -0.07818       -2.79153        0.20853
H         -2.14873       -3.76516        1.05402
H         -4.09447       -2.94549       -2.68287
H         -1.99358       -1.96800       -3.55842
H         -4.16333       -3.68468        1.74159
H         -5.71289       -4.30662        1.19286
H         -6.06197       -2.08193        2.05105
H         -6.37506       -2.10131        0.30906
H         -4.12049       -1.04712       -0.06824
H         -5.20786       -0.05403        0.88296
H         -1.86569       -0.11372        2.62885
H         -2.69941        0.36105       -0.16685
H         -0.83922        0.77877       -1.54217
H         -3.28560        2.40295        1.22794
H         -1.56739        2.58498        1.60687
H         -2.11488        4.76283        0.51176
H         -1.95640        4.81686       -1.21610
H          1.54984        0.95389       -2.74171
H          3.44187       -0.92908       -1.78288
H          1.84591        1.99220       -0.46730
H          3.07324        0.75120       -0.09711
H          4.14086        1.59609       -2.30881
H          6.81174        1.24115       -0.61319
H          7.67799       -0.13578        1.26354
H          6.64111        0.03508        3.51536
H          4.73545        1.58861        3.89010
H          3.86747        2.95871        2.00755
