39
-57.0499
S          1.64330        1.27289        0.01527
O          2.01589        2.16595       -1.06782
O          0.47318        1.55107        0.81613
N          2.96911        1.23705        1.00396
C          3.00615        0.59177        2.24292
O          2.11617       -0.14901        2.62821
C          4.28536        0.84481        3.00131
C          4.30102        0.12562        4.33413
C          1.49565       -0.31941       -0.70411
C          0.34230       -0.66683       -1.40866
N         -0.74760        0.20971       -1.54637
C         -2.10222       -0.03484       -1.25690
C         -3.03025        0.93848       -1.63864
C         -4.40435        0.73164       -1.47296
C         -4.84788       -0.48022       -0.92585
C         -3.93318       -1.45189       -0.52840
C         -2.56887       -1.22472       -0.69033
C         -5.38713        1.78258       -1.90772
F         -4.80389        2.96451       -2.25604
F         -6.29223        2.08661       -0.93749
F         -6.11248        1.39267       -2.99143
C          0.26772       -1.95908       -1.94537
C          1.32962       -2.82865       -1.77680
N          2.46022       -2.49685       -1.12330
C          2.51716       -1.24751       -0.60102
H          3.71618        1.84995        0.69456
H          5.11959        0.49687        2.38105
H          4.39433        1.92425        3.15302
H          5.24257        0.31374        4.85687
H          3.47644        0.46473        4.96975
H          4.19327       -0.95545        4.19500
H         -0.53134        1.19830       -1.42171
H         -2.67479        1.86895       -2.08092
H         -5.91249       -0.66925       -0.80474
H         -4.27465       -2.38701       -0.09351
H         -1.87623       -1.98668       -0.34394
H         -0.60878       -2.28138       -2.49805
H          1.29114       -3.83810       -2.17523
H          3.45202       -1.03525       -0.09491
