39
-10.8451
N         -3.18994       -1.59082       -1.04264
C         -1.97199       -1.63261       -1.61526
N         -0.89094       -0.90511       -1.26992
C         -0.98612       -0.01455       -0.25508
C         -2.21829        0.12316        0.39632
C         -3.23273       -0.68533       -0.05129
O         -4.33658       -0.41916        0.70841
C         -3.91591        0.54772        1.57813
N         -2.65336        0.91353        1.44003
C         -4.91823        1.04098        2.53981
N          0.10815        0.71599        0.15084
C          1.37974        0.62683       -0.53271
C          1.96074        2.02707       -0.75520
C          1.11914        2.82304       -1.69641
O          0.15901        2.45873       -2.36122
O          1.55833        4.10513       -1.78701
C          2.34572       -0.24333        0.26365
C          2.84781        0.16229        1.50599
C          3.75497       -0.63374        2.20635
C          4.17015       -1.85505        1.67749
C          3.67414       -2.28102        0.44706
C          2.76710       -1.47957       -0.25324
C         -1.78590       -2.60450       -2.73788
H         -5.77492        1.46577        2.00725
H         -5.28038        0.21802        3.16400
H         -4.49160        1.81118        3.18834
H         -0.05532        1.33979        0.92241
H          1.23709        0.15372       -1.50885
H          2.97067        1.96386       -1.18008
H          2.02442        2.57498        0.19241
H          0.95325        4.54699       -2.42842
H          2.52369        1.10491        1.93628
H          4.13249       -0.29609        3.16731
H          4.87527       -2.47400        2.22623
H          3.98815       -3.23469        0.03065
H          2.37778       -1.82227       -1.20993
H         -1.12646       -3.41940       -2.43411
H         -2.75661       -3.02254       -3.02239
H         -1.34252       -2.10992       -3.60730
