24
-38.4012
C         -0.36349       -1.11136       -0.12450
C         -1.12661       -2.31169        0.43749
O         -0.79838       -3.48287        0.33606
O         -2.20399       -1.96560        1.18174
C          0.88218       -0.84837        0.72890
C          1.71458        0.31752        0.19327
C          3.02991        0.45032        0.91460
O          3.43343       -0.30945        1.78412
O          3.74196        1.52397        0.50492
N         -1.22512        0.07152       -0.18932
C         -1.16649        0.92293       -1.26563
O         -0.32602        0.82307       -2.15376
C         -2.18153        2.02503       -1.24389
H         -0.06829       -1.38232       -1.14344
H         -2.55294       -2.82167        1.51119
H          1.49280       -1.76003        0.75855
H          0.59364       -0.64449        1.77000
H          1.16631        1.25740        0.32958
H          1.92604        0.17045       -0.87096
H          3.30383        2.03948       -0.19921
H         -1.98253        0.13136        0.48722
H         -2.19925        2.51226       -2.22467
H         -1.90881        2.76121       -0.48509
H         -3.18125        1.63133       -1.03716
