45
-2.94209
O         -5.28814       -1.95045        0.40234
N         -5.03281       -0.99273       -0.54478
C         -3.76505       -0.59149       -0.35526
C         -3.15263       -1.33993        0.70533
C         -1.81407       -1.35483        1.28396
O         -1.62347       -1.88845        2.37338
N         -0.81522       -0.76727        0.53028
C          0.51439       -0.68904        0.91084
C          1.11260       -1.21523        2.02991
N          2.44795       -0.90530        2.00348
C          3.38807       -1.31112        3.02801
C          2.73446       -0.16533        0.87604
C          1.53505       -0.03011        0.18537
C          4.04466        0.34186        0.52759
O          5.07352        0.17085        1.16438
O          3.96118        1.05025       -0.62999
C          5.20474        1.60374       -1.06921
C          4.93408        2.33865       -2.36499
C         -4.18201       -2.15317        1.15687
C         -4.33292       -3.17066        2.22057
C         -3.24222        0.47980       -1.20188
C         -3.38238        0.39482       -2.59595
C         -2.91510        1.41915       -3.42236
C         -2.30732        2.54035       -2.86361
C         -2.17291        2.64183       -1.47959
C         -2.64377        1.61959       -0.64903
H         -1.03222       -0.37130       -0.37268
H          0.70635       -1.79747        2.84754
H          4.04893       -2.07323        2.60718
H          3.95126       -0.43714        3.36214
H          2.84032       -1.72610        3.87875
H          1.41610        0.50573       -0.74947
H          5.93109        0.80102       -1.23666
H          5.58714        2.29972       -0.31474
H          4.52326        1.65304       -3.11355
H          4.18599        3.12282       -2.20969
H          5.84827        2.79033       -2.75859
H         -3.46853       -3.22629        2.88427
H         -5.20387       -2.94399        2.84384
H         -4.47494       -4.16189        1.77944
H         -3.87460       -0.46624       -3.04605
H         -3.04018        1.34571       -4.49993
H         -1.95395        3.34422       -3.50742
H         -1.71606        3.52908       -1.04529
H         -2.55504        1.73619        0.42923
