24
-40.1175
C         -0.47416       -1.28951       -0.48374
C         -0.90072       -2.01503        0.78926
O         -0.71652       -3.22760        0.92250
O         -1.37223       -1.28640        1.81186
C          1.01676       -0.93913       -0.43980
C          1.40636        0.12064        0.59227
C          2.89674        0.22968        0.73504
O          3.73779       -0.46459        0.18841
O          3.24598        1.22456        1.57665
N         -1.33134       -0.21017       -0.98938
C         -1.67838        0.94635       -0.34923
O         -1.45767        1.12468        0.84403
C         -2.36707        1.98004       -1.19837
H         -0.57548       -2.07470       -1.25752
H         -1.42585       -0.32379        1.60143
H          1.57745       -1.86237       -0.23383
H          1.33692       -0.60690       -1.43563
H          0.99514       -0.12414        1.57397
H          1.02858        1.10282        0.29725
H          4.22587        1.21201        1.61242
H         -1.56068       -0.27346       -1.97071
H         -1.70734        2.84521       -1.29537
H         -2.61884        1.60944       -2.19722
H         -3.28130        2.30235       -0.69431
