41
-24.4483
C         -5.50330        1.77489        1.74252
N         -5.04639        0.49654        1.20790
C         -6.06230       -0.53715        1.02174
C         -3.83919        0.41682        0.51367
C         -2.90646        1.46878        0.50995
C         -1.67781        1.37738       -0.16145
C         -1.33541        0.22901       -0.86783
C         -2.23230       -0.83336       -0.87672
C         -3.45857       -0.73255       -0.19544
N         -0.08160        0.20190       -1.51258
C          0.34779       -0.71567       -2.43969
O         -0.31924       -1.60759       -2.95209
N          1.65983       -0.55011       -2.84056
C          2.82539       -0.51728       -2.09788
O          3.87549       -0.79637       -2.68101
C          2.75565       -0.14980       -0.62021
C          4.06757       -0.28558        0.12302
C          4.21904       -1.23843        1.13959
C          5.43352       -1.36244        1.81927
C          6.50821       -0.53667        1.49191
C          6.36855        0.42172        0.48533
C          5.15476        0.54667       -0.18980
H         -6.47134        1.67858        2.24670
H         -4.80478        2.15371        2.49574
H         -5.62136        2.51665        0.94553
H         -6.95670       -0.33699        1.62316
H         -6.37830       -0.59641       -0.02561
H         -5.68895       -1.51387        1.34830
H         -3.11037        2.39209        1.04217
H         -1.00594        2.23245       -0.11912
H         -2.01510       -1.76306       -1.38865
H         -4.10792       -1.60266       -0.24158
H          0.46322        1.05063       -1.45310
H          1.83771       -1.07594       -3.68734
H          2.42565        0.89205       -0.53002
H          2.00433       -0.78652       -0.13889
H          3.39729       -1.89883        1.40876
H          5.54417       -2.10889        2.60229
H          7.45474       -0.64226        2.01463
H          7.20857        1.05305        0.22089
H          5.07186        1.28552       -0.98351
