22
astex_1n2j_03.log	Energy:    -198.8328452
O         -2.30220        1.09488       -0.17730
C         -1.76059        0.01936       -0.16136
O         -2.47477       -1.06685        0.25632
C         -0.31959       -0.29811       -0.59571
O         -0.11068       -1.67966       -0.26185
C          0.74170        0.63688        0.04868
C          0.59525        0.61801        1.57391
C          0.55928        2.05405       -0.49973
C          2.15840        0.12999       -0.34138
O          2.31692       -1.25313        0.01233
H         -1.94824       -1.93047        0.20610
H         -0.26631       -0.27820       -1.71081
H          0.45098       -1.75178        0.57198
H          0.76114       -0.38755        1.98279
H          1.32802        1.27719        2.05613
H         -0.39501        0.96358        1.89849
H         -0.45730        2.43393       -0.29203
H          0.70076        2.11195       -1.58373
H          1.25654        2.76117       -0.03618
H          2.37116        0.26881       -1.41326
H          2.94069        0.63736        0.25520
H          1.97675       -1.82891       -0.71705
