43
astex_1meh_13.log	Energy:    -238.2298352
C         -3.63057       -2.11565       -0.27237
O         -3.54833       -3.26890        0.06370
C         -2.77295       -0.95527       -0.00212
C         -3.32926        0.18909       -0.63430
C         -4.58254       -0.24894       -1.34418
O         -4.70519       -1.69074       -1.06619
C         -2.73400        1.43039       -0.54547
C         -3.28420        2.62842       -1.23718
C         -1.52749        1.49969        0.22276
C         -0.93587        0.39781        0.84506
C         -1.58567       -0.86358        0.71650
O         -1.01454       -1.93139        1.33433
C          0.36406        0.50738        1.59078
C          1.51445        0.50779        0.62493
C          2.34552       -0.52258        0.41022
C          3.46577       -0.40157       -0.59447
C          4.81684       -0.22644        0.11208
C          5.93895       -0.10107       -0.88304
O          5.89643       -0.13678       -2.08329
O          7.19755        0.08050       -0.32760
C          2.24145       -1.83501        1.11898
O         -0.84055        2.70963        0.28423
C         -1.37668        3.65196        1.24993
H         -5.50832        0.20561       -0.95277
H         -4.53219       -0.16443       -2.44354
H         -4.12321        3.06894       -0.68120
H         -2.51531        3.40971       -1.36085
H         -3.64596        2.38709       -2.24674
H         -1.56011       -2.77341        1.19598
H          0.38382        1.45053        2.18047
H          0.44731       -0.31654        2.33285
H          1.61280        1.44387        0.07086
H          3.49144       -1.29718       -1.25207
H          3.29442        0.44799       -1.29015
H          4.77984        0.67155        0.76531
H          5.00037       -1.08782        0.78926
H          7.23406        0.11053        0.64976
H          1.19101       -2.17196        1.17938
H          2.61446       -1.76363        2.14891
H          2.80033       -2.63499        0.61948
H         -0.72834        4.52412        1.09767
H         -2.42001        3.88896        1.02693
H         -1.26608        3.24806        2.26050
