43
astex_1meh_25.log	Energy:    -234.9211852
C          2.85198       -2.51083       -0.00693
O          2.45005       -3.63466       -0.08019
C          2.26459       -1.16241       -0.12727
C          3.28400       -0.19600        0.06946
C          4.57914       -0.91995        0.31866
O          4.23866       -2.33889        0.26210
C          3.03554        1.16416        0.03682
C          4.10371        2.17820        0.25550
C          1.69167        1.54731       -0.23546
C          0.65780        0.63854       -0.47402
C          0.95294       -0.75515       -0.38609
O          0.03613       -1.73187       -0.55358
C         -0.70120        1.12213       -0.88774
C         -1.76491        0.85639        0.13011
C         -3.03265        1.28454        0.02492
C         -4.05450        0.87463        1.05872
C         -4.94486       -0.26672        0.54588
C         -4.16623       -1.52776        0.26763
O         -2.98186       -1.72862        0.33891
O         -4.93123       -2.60629       -0.13925
C         -3.52188        2.14130       -1.09734
O          1.44013        2.91567       -0.36009
C          0.85926        3.50982        0.83143
H          5.34056       -0.75727       -0.46372
H          5.00473       -0.74815        1.32203
H          4.46941        2.16261        1.29103
H          4.96383        2.00833       -0.40731
H          3.73913        3.19774        0.04646
H         -0.91823       -1.40732       -0.54966
H         -0.65069        2.21290       -1.12452
H         -0.97978        0.64664       -1.85782
H         -1.45662        0.23709        0.97737
H         -3.55480        0.55980        2.00025
H         -4.68928        1.74098        1.33636
H         -5.74400       -0.47141        1.28913
H         -5.46261        0.05661       -0.38407
H         -5.89782       -2.45646       -0.19491
H         -2.94203        3.07387       -1.16786
H         -4.57483        2.42761       -0.99447
H         -3.41643        1.62856       -2.06493
H          1.57426        3.45084        1.65726
H          0.69920        4.54731        0.51604
H         -0.08543        3.01789        1.08443
