43
astex_1meh_24.log	Energy:    -234.6900536
C          3.28622       -2.42659       -0.13653
O          3.03563       -3.55644        0.16498
C          2.60360       -1.12332       -0.01092
C          3.43089       -0.11232       -0.56422
C          4.68704       -0.76320       -1.07707
O          4.53144       -2.18434       -0.77512
C          3.06145        1.22081       -0.59012
C          3.91539        2.26587       -1.21980
C          1.79821        1.53245       -0.01034
C          0.93800        0.57318        0.53260
C          1.35679       -0.78963        0.51809
O          0.60957       -1.80291        1.01950
C         -0.38866        0.97139        1.11391
C         -1.54013        0.35060        0.38068
C         -2.59227       -0.25253        0.95476
C         -3.71448       -0.80445        0.10924
C         -4.66198        0.31720       -0.33757
C         -5.89056       -0.24708       -1.00303
O         -6.30543       -1.37464       -0.98096
O         -6.64717        0.66656       -1.71770
C         -2.75766       -0.43474        2.42861
O          1.33336        2.84687       -0.05525
C          1.92150        3.72186        0.94305
H          5.60558       -0.44119       -0.55692
H          4.81230       -0.69733       -2.17203
H          4.35308        1.91702       -2.16624
H          4.74467        2.56250       -0.56290
H          3.33410        3.17084       -1.46101
H         -0.30832       -1.51131        1.29310
H         -0.50189        2.08331        1.05495
H         -0.40977        0.73406        2.20110
H         -1.47049        0.44559       -0.70576
H         -4.28927       -1.58124        0.66092
H         -3.31189       -1.33688       -0.77921
H         -4.96957        0.92419        0.54241
H         -4.12506        1.01547       -1.01225
H         -6.30490        1.58397       -1.73963
H         -2.81899       -1.49983        2.69776
H         -1.93555        0.00343        3.01242
H         -3.68704        0.03379        2.78464
H          1.47620        4.69115        0.68660
H          1.61726        3.39518        1.94170
H          3.01027        3.74935        0.84884
