43
astex_1meh_08.log	Energy:    -239.8953220
C         -3.56428       -2.09612        0.02713
O         -3.44202       -3.25875       -0.25953
C         -2.65441       -0.95257       -0.11558
C         -3.29494        0.21407        0.38145
C         -4.66126       -0.19051        0.86737
O         -4.75483       -1.63784        0.60912
C         -2.67381        1.44612        0.37139
C         -3.32027        2.66779        0.92454
C         -1.34942        1.48191       -0.17123
C         -0.67611        0.35780       -0.65456
C         -1.35879       -0.89265       -0.61781
O         -0.70336       -1.97738       -1.10637
C          0.73642        0.42904       -1.16033
C          1.69810        0.45305       -0.00702
C          2.44743       -0.58354        0.39776
C          3.40071       -0.43095        1.56217
C          4.57600        0.50246        1.24969
C          5.49397       -0.07978        0.20234
O          6.59007       -0.54560        0.37491
O          5.03581       -0.04775       -1.09949
C          2.43410       -1.93220       -0.24137
O         -0.64113        2.68078       -0.13544
C         -0.97967        3.60544       -1.20283
H         -4.80698       -0.07563        1.95534
H         -5.49515        0.26315        0.30512
H         -4.03972        3.10207        0.21646
H         -3.86107        2.45725        1.85805
H         -2.57469        3.44433        1.16449
H         -1.27268       -2.81295       -1.04738
H          0.93808       -0.42955       -1.84160
H          0.87332        1.34631       -1.77399
H          1.71891        1.41005        0.51897
H          3.78990       -1.41990        1.88600
H          2.84963       -0.03875        2.44431
H          4.21326        1.50281        0.93720
H          5.16614        0.67925        2.17730
H          4.10624        0.27414       -1.20540
H          1.59949       -2.05436       -0.95278
H          3.36956       -2.12720       -0.78792
H          2.32118       -2.73343        0.50225
H         -0.69722        3.17458       -2.16790
H         -0.35496        4.47330       -0.95690
H         -2.04211        3.86065       -1.17591
