43
astex_1meh_16.log	Energy:    -241.4134152
C         -3.27480       -2.43735       -0.13352
O         -3.01452       -3.56569        0.16593
C         -2.60144       -1.12932       -0.01085
C         -3.43898       -0.12427       -0.55998
C         -4.69287       -0.78436       -1.06657
O         -4.52515       -2.20442       -0.76579
C         -3.07941        1.21127       -0.58772
C         -3.94391        2.25059       -1.21250
C         -1.81505        1.53223       -0.01486
C         -0.94529        0.57945        0.52411
C         -1.35453       -0.78635        0.51197
O         -0.59801       -1.79427        1.01041
C          0.38122        0.98797        1.09875
C          1.53411        0.37291        0.36295
C          2.58223       -0.23983        0.93405
C          3.70565       -0.78567        0.08608
C          4.69121        0.32844       -0.28442
C          5.90867       -0.22957       -0.95707
O          6.41012       -1.32623       -0.90342
O          6.49410        0.75057       -1.73134
C          2.74273       -0.43845        2.40654
O         -1.36052        2.84986       -0.06395
C         -1.94523        3.72060        0.93994
H         -5.61104       -0.46929       -0.54166
H         -4.82404       -0.71915       -2.16084
H         -4.38369        1.89931       -2.15701
H         -4.77170        2.54122       -0.55117
H         -3.36986        3.15967       -1.45604
H          0.31939       -1.49613        1.27892
H          0.48762        2.10053        1.03518
H          0.40816        0.75466        2.18662
H          1.47061        0.48349       -0.72263
H          3.30608       -1.26178       -0.83480
H          4.24386       -1.60400        0.61383
H          4.20330        1.08953       -0.93454
H          5.00872        0.89054        0.62301
H          7.31736        0.43764       -2.19252
H          3.67380        0.02212        2.76891
H          2.79786       -1.50610        2.66547
H          1.92207       -0.00027        2.99241
H         -1.63085        3.39516        1.93584
H         -3.03478        3.74223        0.85440
H         -1.50688        4.69241        0.68052
