34
astex_1of1_06.log	Energy:    -161.2561450
O          4.44306       -1.57414        0.41610
C          3.22438       -1.48662       -0.33456
C          2.84128       -0.01331       -0.54154
C          2.68253        0.70676        0.83532
O          3.32804        1.99264        0.77303
C          1.19042        1.03069        1.06696
C          0.48540        0.70067       -0.24102
N         -0.88295        0.19831       -0.12536
C         -1.09352       -1.21050        0.01862
O         -0.18125       -2.01421        0.00770
N         -2.44292       -1.60440        0.16491
C         -3.57834       -0.71632        0.18303
O         -4.66925       -1.22472        0.31743
C         -3.23917        0.70739        0.03249
C         -1.95199        1.11418       -0.10911
C         -4.38711        1.65595        0.04760
C          1.48920        0.08363       -1.23356
C          0.91047        1.46605       -1.49026
H          5.20632       -1.31814       -0.13622
H          2.48935       -2.02127        0.30513
H          3.33147       -2.02681       -1.28982
H          3.62120        0.51213       -1.13814
H          3.13131        0.11879        1.66276
H          4.28895        1.90336        0.91484
H          0.78553        0.44280        1.90995
H          1.07599        2.10001        1.33736
H         -2.62080       -2.61505        0.26872
H         -1.67464        2.17102       -0.21982
H         -4.08381        2.70174       -0.07875
H         -4.94552        1.58230        0.99561
H         -5.10567        1.41711       -0.75397
H          1.21713       -0.74331       -1.89099
H          0.21510        1.60136       -2.31476
H          1.54312        2.34866       -1.36644
