43
astex_1meh_11.log	Energy:    -239.1799432
C         -3.59690       -2.32708       -0.06363
O         -3.37675       -3.47605        0.22091
C         -2.80541       -1.10488        0.12219
C         -3.53288        0.00051       -0.39501
C         -4.83729       -0.52453       -0.93179
O         -4.80091       -1.97796       -0.69164
C         -3.02722        1.28321       -0.35852
C         -3.77601        2.45542       -0.88825
C         -1.73121        1.43846        0.23131
C         -0.98718        0.38328        0.76355
C         -1.55218       -0.92339        0.69752
O         -0.82216       -1.94431        1.21647
C          0.34607        0.59057        1.42083
C          1.48404        0.24959        0.50572
C          2.64121        0.92412        0.43277
C          3.73734        0.46440       -0.49828
C          4.55413       -0.66819        0.13947
C          5.72215       -1.04801       -0.73162
O          6.14677       -0.48862       -1.70728
O          6.40177       -2.19077       -0.34283
C          2.95756        2.14074        1.24166
O         -1.26703        2.74402        0.35988
C         -0.27390        3.12604       -0.63012
H         -4.95849       -0.40897       -2.02232
H         -5.72804       -0.15880       -0.39255
H         -3.86594        2.41759       -1.98253
H         -4.79017        2.51347       -0.46883
H         -3.27334        3.40383       -0.63139
H         -1.31236       -2.82679        1.13918
H          0.41998        1.63836        1.79605
H          0.41404       -0.05707        2.32816
H          1.30957       -0.63784       -0.10665
H          4.41268        1.30489       -0.76805
H          3.31427        0.12371       -1.46717
H          3.89739       -1.54382        0.32634
H          4.92235       -0.34918        1.13886
H          6.05195       -2.64954        0.44887
H          2.08386        2.52025        1.79321
H          3.73927        1.92735        1.98427
H          3.32533        2.96316        0.61325
H          0.59484        2.46037       -0.58549
H         -0.72975        3.12484       -1.62410
H         -0.01486        4.14220       -0.31008
