43
astex_1meh_06.log	Energy:    -245.3818174
C         -3.49268       -1.78569        0.02793
O         -3.74009       -2.78115        0.65845
C         -2.48576       -0.73432        0.21333
C         -2.62625        0.22906       -0.82246
C         -3.75627       -0.21997       -1.70998
O         -4.24656       -1.47452       -1.11314
C         -1.81135        1.33864       -0.89831
C         -1.92459        2.33868       -1.99541
C         -0.81680        1.46446        0.12525
C         -0.63003        0.53570        1.14912
C         -1.49800       -0.59666        1.18263
O         -1.32174       -1.48798        2.19073
C          0.46340        0.67329        2.17064
C          1.57344       -0.29627        1.88074
C          2.71045        0.00633        1.23621
C          3.76185       -1.05826        1.01197
C          3.50219       -1.84645       -0.27656
C          3.93021       -1.08811       -1.49597
O          4.69693       -0.16516       -1.63758
O          3.30776       -1.62206       -2.60720
C          3.03995        1.36313        0.70973
O          0.07815        2.53153        0.04899
C         -0.43430        3.77459        0.59805
H         -4.62431        0.46061       -1.71838
H         -3.44743       -0.48318       -2.73626
H         -1.00288        2.93741       -2.08995
H         -2.08515        1.85843       -2.97087
H         -2.75855        3.03359       -1.82616
H         -1.99064       -2.24574        2.13715
H          0.84000        1.71890        2.19203
H          0.05290        0.47247        3.18580
H          1.37086       -1.30862        2.23245
H          3.78911       -1.76159        1.86967
H          4.77353       -0.59755        0.97768
H          2.42330       -2.11662       -0.36008
H          4.04252       -2.81879       -0.25429
H          3.56216       -1.16229       -3.44941
H          3.76466        1.32763       -0.11954
H          3.47674        1.99664        1.49225
H          2.14499        1.88339        0.32527
H         -0.61137        3.65996        1.67157
H         -1.34269        4.08384        0.07461
H          0.39376        4.46737        0.40296
