22
astex_1n2j_12.log	Energy:    -195.9289074
O         -2.01943        1.51019       -0.02597
C         -1.84042        0.32552       -0.12719
O         -2.87939       -0.51591        0.16958
C         -0.56356       -0.40503       -0.57570
O         -0.74252       -1.78102       -0.20768
C          0.74667        0.20158       -0.00161
C          0.93732        1.61005       -0.56512
C          0.67682        0.23289        1.53022
C          1.92207       -0.70608       -0.46318
O          3.18457       -0.19174       -0.03353
H         -2.66387       -1.48942        0.01745
H         -0.53977       -0.44336       -1.69337
H         -0.44203       -1.93094        0.72360
H          0.94293        1.62664       -1.66043
H          0.14402        2.29723       -0.23235
H          1.90098        2.02932       -0.24231
H         -0.10237        0.92608        1.88193
H          0.47005       -0.75064        1.96408
H          1.61866        0.59606        1.96224
H          1.80819       -1.74356       -0.10319
H          2.02816       -0.71326       -1.56537
H          3.21583       -0.12981        0.94401
