34
astex_1of1_00.log	Energy:    -163.2320169
O          2.81796        2.11509       -0.63857
C          3.48466        1.42114        0.41678
C          2.97129       -0.02080        0.55808
C          2.78406       -0.68329       -0.84348
O          3.49636       -1.93378       -0.87544
C          1.30181       -1.07564       -1.03361
C          0.60285       -0.71522        0.26796
N         -0.77267       -0.23057        0.14615
C         -1.01981        1.17247        0.04135
O         -0.13083        2.00468        0.08762
N         -2.37437        1.54036       -0.10683
C         -3.48965        0.62651       -0.16115
O         -4.58992        1.11370       -0.29131
C         -3.11622       -0.79214       -0.04745
C         -1.82097       -1.17099        0.09526
C         -4.24010       -1.76761       -0.10022
C          1.61137       -0.07742        1.24095
C          1.02491       -1.44889        1.53753
H          1.84411        2.18843       -0.44167
H          3.37376        1.98905        1.35822
H          4.54434        1.44822        0.09819
H          3.70843       -0.61845        1.14678
H          3.15187       -0.02889       -1.66196
H          4.44625       -1.79022       -1.03993
H          1.22807       -2.16009       -1.25548
H          0.86345       -0.54483       -1.89770
H         -2.57410        2.54996       -0.18295
H         -1.51853       -2.22354        0.18012
H         -4.96932       -1.57248        0.70369
H         -3.91197       -2.80933       -0.00504
H         -4.79478       -1.67805       -1.04921
H          1.34665        0.77068        1.87423
H          1.65016       -2.33906        1.44246
H          0.32712       -1.55630        2.36459
