43
astex_1meh_02.log	Energy:    -245.1546394
C         -3.11403       -2.35873       -0.36275
O         -3.06546       -3.28871       -1.12553
C         -2.40207       -1.07520       -0.33695
C         -2.83802       -0.32680        0.79000
C         -3.85900       -1.15799        1.52003
O         -3.97938       -2.40188        0.74022
C         -2.34068        0.92970        1.06444
C         -2.76503        1.71295        2.25730
C         -1.36145        1.43587        0.14971
C         -0.89080        0.73110       -0.95794
C         -1.43580       -0.56633       -1.19804
O         -0.98577       -1.23894       -2.28672
C          0.17865        1.27342       -1.86332
C          1.48413        0.57583       -1.60667
C          2.47038        1.04775       -0.82982
C          3.74750        0.26004       -0.65557
C          3.64964       -0.65005        0.57391
C          4.96516       -1.29685        0.87780
O          6.09198       -0.99311        0.56738
O          4.75773       -2.41400        1.66231
C          2.40857        2.34902       -0.09837
O         -0.77683        2.67201        0.42779
C         -1.55939        3.80987       -0.02249
H         -3.54659       -1.47294        2.53057
H         -4.87195       -0.72132        1.53562
H         -2.03929        2.50858        2.49540
H         -2.84160        1.08209        3.15408
H         -3.74317        2.18894        2.10230
H         -1.43640       -2.14088       -2.37917
H          0.27726        2.37208       -1.72797
H         -0.11923        1.12001       -2.92528
H          1.56863       -0.39020       -2.10727
H          3.96714       -0.34602       -1.55912
H          4.61827        0.94428       -0.55568
H          2.86094       -1.42301        0.42948
H          3.31519       -0.07128        1.46524
H          5.60231       -2.87764        1.90365
H          1.38587        2.56950        0.25794
H          2.71157        3.17981       -0.75004
H          3.06252        2.37058        0.78148
H         -1.64003        3.79580       -1.11354
H         -0.95096        4.65544        0.32102
H         -2.54521        3.81180        0.45005
