22
astex_1n2j_14.log	Energy:    -194.8236740
O         -2.27465        1.38312       -0.32915
C         -1.84391        0.27649       -0.13394
O         -2.55346       -0.58083        0.65752
C         -0.54905       -0.31055       -0.71707
O         -0.61328       -1.72763       -0.46660
C          0.71629        0.22869        0.02043
C          0.57524        0.03786        1.53132
C          0.88088        1.70987       -0.33570
C          1.93197       -0.59237       -0.49273
O          3.13862       -0.22029        0.17769
H         -2.08771       -1.46726        0.79440
H         -0.49693       -0.11028       -1.80802
H         -0.92277       -2.20185       -1.26898
H          0.27163       -0.98731        1.77985
H          1.54096        0.20578        2.03236
H         -0.15136        0.72546        1.97721
H          1.11731        1.86761       -1.39271
H          1.67580        2.17562        0.25886
H         -0.03634        2.28426       -0.12551
H          1.82572       -1.66549       -0.23234
H          2.07444       -0.48528       -1.58086
H          3.34295        0.72377        0.01628
