43
astex_1meh_27.log	Energy:    -234.8128896
C          2.17054        2.74881        0.58967
O          1.56027        3.61952        1.13789
C          1.96774        1.30475        0.35734
C          3.07153        0.79385       -0.37324
C          4.02303        1.92916       -0.63816
O          3.40775        3.09770       -0.01142
C          3.16868       -0.53633       -0.74157
C          4.30616       -1.05032       -1.55370
C          2.09707       -1.38105       -0.33185
C          0.97891       -0.92470        0.37402
C          0.91985        0.45760        0.71520
O         -0.11162        1.01106        1.40181
C         -0.12857       -1.86695        0.75259
C         -1.42749       -1.49453        0.10210
C         -2.59713       -1.32501        0.73682
C         -3.84213       -0.96149       -0.03783
C         -3.82996        0.52096       -0.43236
C         -5.09654        0.87860       -1.16908
O         -5.26513        0.93976       -2.35709
O         -6.19491        1.16178       -0.37680
C         -2.78495       -1.47539        2.21212
O          2.09385       -2.71902       -0.72238
C          2.97051       -3.57356        0.05830
H          5.00958        1.81173       -0.15764
H          4.13444        2.18196       -1.70723
H          5.20213       -1.21541       -0.93958
H          4.58105       -0.35130       -2.35682
H          4.05250       -2.00362       -2.04603
H         -0.85925        0.36700        1.56164
H          0.13630       -2.90465        0.42623
H         -0.21499       -1.92430        1.86035
H         -1.35495       -1.37741       -0.98309
H         -3.91813       -1.59161       -0.95247
H         -4.75357       -1.19713        0.54832
H         -3.67846        1.16895        0.45327
H         -2.95753        0.73242       -1.09388
H         -6.04133        1.10997        0.59054
H         -3.44718       -2.32559        2.43810
H         -3.24469       -0.58345        2.65869
H         -1.84346       -1.66645        2.74828
H          2.60718       -3.62730        1.08864
H          4.00362       -3.21884        0.01866
H          2.86165       -4.53779       -0.45428
