22
astex_1n2j_04.log	Energy:    -197.4260502
O         -2.38126       -0.58836        0.56947
C         -1.56515        0.03142       -0.06969
O         -1.77011        1.35496       -0.28515
C         -0.29869       -0.60909       -0.66197
O         -0.48742       -2.01918       -0.66321
C          1.00247       -0.22451        0.11396
C          0.74152       -0.16433        1.62139
C          2.07780       -1.27327       -0.19969
C          1.53083        1.14070       -0.39576
O          0.58904        2.21284       -0.20729
H         -0.99721        1.83926       -0.75503
H         -0.19770       -0.37240       -1.74861
H         -0.98755       -2.30710        0.14672
H          0.02972        0.62199        1.89991
H          0.32579       -1.11232        1.99106
H          1.66405        0.01129        2.18745
H          2.34390       -1.29055       -1.26282
H          2.99240       -1.11526        0.37932
H          1.70916       -2.28568        0.03293
H          1.69085        1.15092       -1.49078
H          2.47562        1.41745        0.10591
H          0.41627        2.35479        0.75401
