22
astex_1n2j_08.log	Energy:    -201.3999138
O         -2.55348        0.74709       -0.64766
C         -1.75300       -0.06040       -0.24995
O         -2.09455       -0.95465        0.73795
C         -0.30319       -0.28930       -0.67547
O          0.01652       -1.67083       -0.55423
C          0.68741        0.61518        0.12517
C          0.63477        0.28797        1.61860
C          0.33033        2.08220       -0.13545
C          2.12315        0.35054       -0.41063
O          2.56039       -0.97882       -0.13027
H         -3.04566       -0.87708        1.02041
H         -0.21785       -0.11190       -1.77838
H         -0.12369       -1.97847        0.38162
H          1.15437        1.04910        2.21332
H          1.14522       -0.66514        1.82823
H         -0.38841        0.21826        2.00350
H         -0.67562        2.33291        0.22868
H          1.02440        2.76062        0.37572
H          0.35385        2.33725       -1.20134
H          2.19678        0.53717       -1.49595
H          2.86699        0.97445        0.12079
H          1.96179       -1.63665       -0.57643
