43
astex_1meh_09.log	Energy:    -242.7582705
C         -3.90289       -1.55505       -0.55619
O         -4.07621       -2.73100       -0.69382
C         -2.79811       -0.69965       -0.08227
C         -3.19951        0.66063       -0.16063
C         -4.60726        0.70336       -0.68958
O         -4.97374       -0.69401       -0.91415
C         -2.36540        1.70521        0.19345
C         -2.78444        3.13061        0.09822
C         -1.07044        1.34526        0.66907
C         -0.64519        0.02149        0.80613
C         -1.52527       -1.01706        0.38716
O         -1.17594       -2.32924        0.42780
C          0.69453       -0.31020        1.39775
C          1.71147       -0.54814        0.32615
C          2.55289       -1.58634        0.23727
C          3.54573       -1.65042       -0.90187
C          4.80457       -0.82644       -0.61208
C          4.58339        0.64938       -0.75610
O          3.61471        1.29714       -1.08017
O          5.75574        1.30769       -0.44767
C          2.59871       -2.72972        1.19799
O         -0.24160        2.37697        1.10261
C          0.75553        2.78430        0.12441
H         -5.34478        1.09918        0.03002
H         -4.70558        1.20395       -1.66811
H         -2.91024        3.44596       -0.94654
H         -3.73459        3.30960        0.62061
H         -2.03832        3.80038        0.55855
H         -0.21294       -2.45658        0.66857
H          1.03662        0.54218        2.03730
H          0.60633       -1.16842        2.09872
H          1.74488        0.25950       -0.42401
H          3.06990       -1.29667       -1.84329
H          3.83882       -2.70162       -1.10292
H          5.63382       -1.13405       -1.28934
H          5.18422       -1.03933        0.41432
H          5.68018        2.29508       -0.52884
H          2.26681       -3.66427        0.72311
H          3.62024       -2.90338        1.56572
H          1.97071       -2.56817        2.08526
H          1.33250        3.52864        0.68432
H          0.25783        3.22987       -0.74069
H          1.39004        1.93436       -0.17283
