22
astex_1n2j_15.log	Energy:    -196.3161180
O          1.32452       -1.87069       -0.11338
C          1.58881       -0.69590       -0.15160
O          2.84366       -0.29390        0.20364
C          0.65411        0.44656       -0.58661
O          1.34092        1.65668       -0.23744
C         -0.77084        0.35534        0.02922
C         -1.56791        1.60055       -0.37296
C         -0.67004        0.24998        1.55584
C         -1.46999       -0.90649       -0.55184
O         -2.82075       -0.99271       -0.09059
H          2.98121        0.70491        0.10981
H          0.61611        0.48416       -1.70362
H          0.99714        2.01575        0.61766
H         -2.62947        1.47104       -0.10713
H         -1.20838        2.50962        0.11715
H         -1.53893        1.77864       -1.45447
H         -0.20955       -0.69505        1.87495
H         -1.66361        0.30030        2.02034
H         -0.08165        1.06594        1.98995
H         -1.59107       -0.83919       -1.64961
H         -0.92314       -1.83608       -0.29787
H         -2.84041       -1.25529        0.85277
