34
astex_1of1_03.log	Energy:    -160.3217486
O          4.42639        1.49410       -0.32328
C          3.18470        1.48456        0.41558
C          2.83523       -0.00088        0.56576
C          2.69804       -0.67968       -0.83459
O          3.33657       -1.96923       -0.80730
C          1.20835       -0.99059       -1.09849
C          0.49034       -0.72101        0.21659
N         -0.87630       -0.21136        0.11079
C         -1.07581        1.19888       -0.02940
O         -0.15658        1.99581       -0.02954
N         -2.42285        1.60540       -0.16059
C         -3.56643        0.72695       -0.17094
O         -4.65374        1.24623       -0.29185
C         -3.23784       -0.69999       -0.03075
C         -1.95283       -1.11814        0.09831
C         -4.39351       -1.63919       -0.04167
C          1.48151       -0.14502        1.24653
C          0.90973       -1.54141        1.43184
H          4.68073        2.41208       -0.53403
H          3.35121        1.97044        1.39258
H          2.41001        2.03741       -0.15194
H          3.63389       -0.51941        1.14620
H          3.16470       -0.07122       -1.63671
H          4.30943       -1.86706       -0.78789
H          0.81351       -0.36405       -1.91749
H          1.09663       -2.04633       -1.41899
H         -2.59331        2.61773       -0.25832
H         -1.68324       -2.17791        0.20104
H         -5.10325       -1.39955        0.76748
H         -4.95930       -1.55573       -0.98445
H         -4.09748       -2.68813        0.07596
H          1.19943        0.64458        1.94377
H          1.55025       -2.41291        1.26982
H          0.21084       -1.72045        2.24472
