43
astex_1meh_14.log	Energy:    -237.5069486
C          1.56174        2.75523        0.03517
O          0.72869        3.61486        0.06463
C          1.54339        1.29005       -0.14016
C          2.86491        0.79031       -0.00147
C          3.78307        1.96080        0.22517
O          2.90963        3.13506        0.24654
C          3.15942       -0.55847       -0.08045
C          4.55464       -1.07132        0.00465
C          2.05010       -1.43353       -0.27469
C          0.73456       -0.98971       -0.43697
C          0.49388        0.41475       -0.40976
O         -0.72928        0.97038       -0.61277
C         -0.39742       -1.96577       -0.59906
C         -1.47320       -1.68654        0.40739
C         -2.78069       -1.55833        0.13437
C         -3.73653       -1.10195        1.21340
C         -3.62770        0.41809        1.42466
C         -3.98773        1.13695        0.14622
O         -5.02607        1.05442       -0.46074
O         -3.01227        1.92136       -0.42073
C         -3.38897       -1.79285       -1.20727
O          2.27638       -2.80218       -0.40392
C          2.49280       -3.49475        0.85417
H          4.29662        1.95094        1.20178
H          4.50176        2.13218       -0.59545
H          5.25223       -0.44938       -0.57479
H          4.91692       -1.09519        1.04161
H          4.63500       -2.09205       -0.40466
H         -1.41762        0.31872       -0.94865
H         -0.78054       -1.93393       -1.64427
H         -0.02352       -3.01040       -0.47599
H         -1.10000       -1.54944        1.42413
H         -3.53199       -1.62416        2.16981
H         -4.78439       -1.36563        0.95112
H         -4.32725        0.73732        2.22778
H         -2.61437        0.68816        1.78179
H         -2.19730        2.10358        0.12351
H         -3.97869       -2.72246       -1.21022
H         -4.08352       -0.98507       -1.49752
H         -2.64545       -1.88802       -2.01096
H          1.58168       -3.45107        1.45845
H          2.69830       -4.51833        0.51628
H          3.34785       -3.07483        1.38992
