43
astex_1meh_05.log	Energy:    -245.1546440
C         -3.11395       -2.35888       -0.36253
O         -3.06524       -3.28897       -1.12517
C         -2.40210       -1.07529       -0.33686
C         -2.83818       -0.32677        0.78994
C         -3.85918       -1.15791        1.52001
O         -3.97936       -2.40195        0.74040
C         -2.34089        0.92979        1.06427
C         -2.76540        1.71314        2.25701
C         -1.36162        1.43587        0.14957
C         -0.89086        0.73098       -0.95798
C         -1.43578       -0.56649       -1.19795
O         -0.98568       -1.23924       -2.28652
C          0.17861        1.27325       -1.86336
C          1.48412        0.57574       -1.60672
C          2.47032        1.04763       -0.82978
C          3.74744        0.25998       -0.65552
C          3.64998       -0.64966        0.57429
C          4.96558       -1.29645        0.87788
O          6.09240       -0.99217        0.56803
O          4.75816       -2.41438        1.66133
C          2.40830        2.34883       -0.09820
O         -0.77701        2.67204        0.42752
C         -1.55960        3.80987       -0.02277
H         -4.87216       -0.72132        1.53539
H         -3.54686       -1.47267        2.53063
H         -3.74367        2.18884        2.10199
H         -2.84174        1.08242        3.15391
H         -2.03986        2.50900        2.49495
H         -1.43627       -2.14130       -2.37877
H         -0.11930        1.11979       -2.92531
H          0.27720        2.37193       -1.72805
H          1.56871       -0.39025       -2.10741
H          4.61821        0.94434       -0.55611
H          3.96690       -0.34642       -1.55891
H          2.86111       -1.42257        0.43046
H          3.31597       -0.07054        1.46557
H          5.60272       -2.87804        1.90250
H          3.06254        2.37051        0.78144
H          1.38564        2.56892        0.25846
H          2.71073        3.17978       -0.74992
H         -2.54556        3.81162        0.44947
H         -0.95138        4.65547        0.32105
H         -1.63989        3.79595       -1.11385
