22
astex_1n2j_18.log	Energy:    -193.5178529
O         -2.47104       -0.58874        0.80431
C         -1.86467        0.04017       -0.02252
O         -2.39272        1.24811       -0.41171
C         -0.54827       -0.39015       -0.68290
O         -0.51393       -1.81018       -0.73343
C          0.69092        0.17952        0.07823
C          0.66893       -0.26454        1.54382
C          0.69339        1.70719       -0.02336
C          1.95099       -0.39148       -0.63091
O          3.15096        0.12903       -0.05256
H         -1.86477        1.74795       -1.07568
H         -0.52230       -0.11081       -1.76373
H         -0.75931       -2.19661        0.14764
H         -0.24530        0.05593        2.06240
H          1.50779        0.16906        2.10261
H          0.73164       -1.35400        1.64602
H          1.65152        2.10242        0.35677
H          0.61699        2.06343       -1.05485
H         -0.10012        2.17045        0.57318
H          2.02309       -0.05502       -1.68212
H          1.96315       -1.49626       -0.59970
H          3.26381       -0.20669        0.86031
