22
astex_1n2j_19.log	Energy:    -191.7190819
O          2.18922       -0.26292        1.12580
C          1.67975       -0.40226        0.04640
O          2.02500       -1.52972       -0.66695
C          0.65759        0.53776       -0.61485
O          1.11652        1.86905       -0.44414
C         -0.77726        0.32847       -0.02961
C         -0.79259        0.64935        1.46825
C         -1.73698        1.25170       -0.78505
C         -1.19034       -1.15222       -0.25791
O         -2.54856       -1.37918        0.12495
H          1.65420       -1.59509       -1.57348
H          0.65499        0.43111       -1.72620
H          1.18791        2.09110        0.52035
H         -0.05678        0.06074        2.03402
H         -1.77909        0.45604        1.90734
H         -0.57455        1.70824        1.65718
H         -1.45393        2.30574       -0.66968
H         -2.76514        1.12950       -0.41705
H         -1.76334        1.03734       -1.85917
H         -0.53813       -1.85480        0.29333
H         -1.20068       -1.41885       -1.33169
H         -2.66388       -1.20569        1.08445
