43
astex_1meh_20.log	Energy:    -241.2754754
C         -3.73154       -1.89000       -0.21476
O         -3.88271       -3.05065        0.03237
C         -2.70579       -0.87119        0.08362
C         -3.09874        0.36396       -0.49460
C         -4.41342        0.15579       -1.19641
O         -4.74375       -1.25119       -0.97906
C         -2.33441        1.51142       -0.38687
C         -2.72935        2.79099       -1.03841
C         -1.12531        1.39178        0.35789
C         -0.68832        0.19990        0.94197
C         -1.50190       -0.96005        0.78160
O         -1.17882       -2.17194        1.29833
C          0.60590        0.14582        1.70709
C          1.61129       -0.79634        1.11099
C          2.19794       -0.62976       -0.08628
C          3.20694       -1.64164       -0.58547
C          4.60056       -1.39324       -0.00094
C          5.27565       -0.21535       -0.63785
O          5.08543        0.34184       -1.69213
O          6.28806        0.22845        0.18898
C          1.91921        0.50418       -1.01048
O         -0.27053        2.49259        0.43725
C         -0.65584        3.47678        1.43276
H         -4.36486        0.29032       -2.29100
H         -5.24940        0.73367       -0.76631
H         -3.12581        2.62710       -2.05060
H         -3.50293        3.31703       -0.46217
H         -1.86836        3.47084       -1.14697
H         -0.26625       -2.18566        1.70407
H          0.39906       -0.12150        2.76511
H          1.05336        1.16989        1.74927
H          1.87454       -1.64143        1.74460
H          3.25553       -1.62016       -1.69736
H          2.88002       -2.67114       -0.33072
H          4.54739       -1.24573        1.10238
H          5.24527       -2.28997       -0.14202
H          6.78331        1.00264       -0.18846
H          1.54415        1.39999       -0.48781
H          1.14889        0.23098       -1.74675
H          2.81358        0.81068       -1.57808
H          0.10173        4.25683        1.28713
H         -1.66101        3.85825        1.23492
H         -0.58686        3.03638        2.43174
