22
astex_1n2j_01.log	Energy:    -197.3946252
O         -1.38702        1.65388        0.33644
C         -1.47147        0.49742       -0.00204
O         -2.66949       -0.13768        0.13346
C         -0.35180       -0.35303       -0.61997
O         -0.91647       -1.66053       -0.79747
C          0.96474       -0.36723        0.20602
C          2.02298       -1.12033       -0.60874
C          0.72684       -1.05550        1.55651
C          1.44443        1.08997        0.45993
O          1.29938        1.87190       -0.73018
H         -2.65903       -1.07820       -0.24687
H         -0.15567        0.00609       -1.66441
H         -0.59033       -2.27868       -0.09390
H          1.65725       -2.08514       -0.97721
H          2.92805       -1.31197       -0.02223
H          2.32940       -0.53132       -1.48709
H         -0.00758       -0.52064        2.17259
H          0.36855       -2.08549        1.43138
H          1.65271       -1.11418        2.14318
H          2.52949        1.11916        0.67094
H          0.89279        1.56614        1.29025
H          0.42892        2.34590       -0.70487
