34
astex_1of1_04.log	Energy:    -158.1591978
O          1.94857        2.42473        0.17386
C          3.07696        1.77291        0.80260
C          2.88452        0.27119        0.56883
C          2.76248       -0.05725       -0.95643
O          3.80523       -0.97714       -1.32099
C          1.44929       -0.82464       -1.21332
C          0.71576       -0.85262        0.11949
N         -0.71134       -0.54155        0.07056
C         -1.68035       -1.59241        0.12144
O         -1.38169       -2.76173        0.25187
N         -3.02662       -1.16628        0.01816
C         -3.46594        0.19730       -0.12876
O         -4.66160        0.38281       -0.20961
C         -2.38158        1.18884       -0.16032
C         -1.08097        0.81122       -0.06694
C         -2.78398        2.61773       -0.29392
C          1.60199       -0.22794        1.21817
C          1.30133       -1.71741        1.22523
H          2.01057        3.39088        0.30213
H          3.07719        2.02414        1.87866
H          4.00422        2.14796        0.33410
H          3.76317       -0.28002        0.98583
H          2.84107        0.85445       -1.58197
H          4.64739       -0.51350       -1.47541
H          1.67613       -1.85442       -1.56794
H          0.85551       -0.35237       -2.01414
H         -3.74684       -1.90318        0.04832
H         -0.24370        1.53320       -0.08754
H         -3.86875        2.71387       -0.47812
H         -2.27219        3.11145       -1.13065
H         -2.56649        3.18487        0.62191
H          1.18814        0.39859        2.00789
H          0.64532       -2.12878        1.99282
H          2.07381       -2.44318        0.96560
