43
astex_1meh_07.log	Energy:    -240.8044704
C          3.87745       -1.13086       -0.46064
O          4.36431       -2.22566       -0.34677
C          2.61410       -0.56590        0.03230
C          2.52352        0.79129       -0.37539
C          3.75979        1.10936       -1.17335
O          4.55734       -0.12935       -1.16761
C          1.44042        1.58143       -0.04462
C          1.31286        2.98716       -0.51783
C          0.41857        0.95368        0.73443
C          0.44804       -0.38608        1.12753
C          1.58620       -1.16024        0.75650
O          1.61258       -2.45625        1.15729
C         -0.69181       -1.02948        1.86591
C         -1.76334       -1.42168        0.88996
C         -3.00618       -0.91787        0.86123
C         -3.98173       -1.34999       -0.20675
C         -4.23297       -0.24478       -1.23920
C         -3.07709       -0.06952       -2.19629
O         -3.07203       -0.36006       -3.36619
O         -1.93690        0.51847       -1.70444
C         -3.51235        0.09182        1.84194
O         -0.73317        1.67762        1.04989
C         -0.55984        2.63111        2.13220
H          4.40849        1.87862       -0.72191
H          3.56326        1.32869       -2.23794
H          1.92255        3.67774        0.07991
H          0.26695        3.33389       -0.47962
H          1.62703        3.09006       -1.56758
H          2.45718       -2.92356        0.85022
H         -0.33626       -1.93741        2.40721
H         -1.07088       -0.33998        2.64844
H         -1.43548       -2.16204        0.15593
H         -3.63275       -2.27105       -0.72112
H         -4.94629       -1.63552        0.26508
H         -4.46208        0.71812       -0.73852
H         -5.14095       -0.49327       -1.83373
H         -1.91671        0.66437       -0.71903
H         -4.51112        0.46933        1.59407
H         -2.83493        0.95998        1.89492
H         -3.57551       -0.33750        2.85200
H         -0.42293        2.08642        3.07149
H          0.28095        3.30252        1.93781
H         -1.51136        3.17577        2.11735
