34
astex_1of1_13.log	Energy:    -158.1029033
O          1.95311        2.42622        0.18038
C          3.07943        1.77039        0.80882
C          2.88508        0.26971        0.57022
C          2.76303       -0.05396       -0.95606
O          3.80672       -0.97099       -1.32484
C          1.45095       -0.82261       -1.21489
C          0.71653       -0.85319        0.11739
N         -0.71044       -0.54194        0.06799
C         -1.67978       -1.59210        0.11999
O         -1.38164       -2.76174        0.24914
N         -3.02603       -1.16514        0.01960
C         -3.46570        0.19900       -0.12503
O         -4.66137        0.38402       -0.19911
C         -2.37947        1.18910       -0.16076
C         -1.07921        0.81166       -0.06932
C         -2.79685        2.61211       -0.30235
C          1.60202       -0.23037        1.21771
C          1.30146       -1.71989        1.22197
H          2.02170        3.39251        0.30413
H          4.00831        2.14524        0.34343
H          3.07770        2.01848        1.88567
H          3.76309       -0.28370        0.98576
H          2.83994        0.85994       -1.57863
H          4.64994       -0.50657       -1.47099
H          0.85721       -0.35008       -2.01558
H          1.67934       -1.85161       -1.57085
H         -3.74637       -1.90190        0.05160
H         -0.24013        1.53127       -0.09129
H         -3.36767        2.76254       -1.23331
H         -1.94961        3.30729       -0.31459
H         -3.46414        2.90991        0.52282
H          1.18757        0.39486        2.00817
H          2.07408       -2.44516        0.96154
H          0.64492       -2.13260        1.98840
