22
astex_1n2j_06.log	Energy:    -200.2774680
O         -2.47757       -0.60159        0.33777
C         -1.70132        0.19489       -0.13357
O         -2.03178        1.52176       -0.22649
C         -0.29710       -0.04270       -0.69164
O         -0.35228       -1.17310       -1.54710
C          0.74692       -0.21480        0.45619
C          0.61792        0.95349        1.43984
C          0.54125       -1.54862        1.18046
C          2.14969       -0.21258       -0.20862
O          2.41413        1.03074       -0.86660
H         -2.95096        1.71841        0.10163
H          0.01499        0.78473       -1.38624
H         -0.68694       -1.96857       -1.06268
H         -0.29564        0.88060        2.04404
H          1.45542        0.97979        2.14612
H          0.58098        1.92198        0.92424
H          0.74481       -2.40783        0.53033
H         -0.48982       -1.65338        1.54995
H          1.19977       -1.64017        2.05215
H          2.19757       -0.94206       -1.04413
H          2.94764       -0.42540        0.52088
H          2.51815        1.75135       -0.21288
