22
astex_1n2j_10.log	Energy:    -199.5635644
O         -2.43351        1.24187       -0.52001
C         -1.83377        0.25053       -0.19381
O         -2.32042       -0.55883        0.80997
C         -0.52595       -0.32764       -0.73376
O         -0.59099       -1.74488       -0.74497
C          0.71139        0.19502        0.06427
C          0.74503        1.72305       -0.00056
C          0.65516       -0.28793        1.51728
C          1.96861       -0.38641       -0.64138
O          3.17411        0.06640       -0.01912
H         -3.20045       -0.25507        1.15993
H         -0.44411       -0.07420       -1.82285
H         -0.79830       -2.09390        0.15892
H          0.61477        2.10302       -1.02076
H         -0.02733        2.18873        0.62134
H          1.72069        2.09699        0.34760
H          0.77381       -1.37428        1.59650
H         -0.29894       -0.03082        1.99766
H          1.44452        0.17813        2.11991
H          2.07463       -0.00596       -1.67520
H          1.94656       -1.49124       -0.65705
H          3.23767       -0.27768        0.89478
