22
astex_1n2j_11.log	Energy:    -199.7710915
O         -2.35068        1.30113       -0.37020
C         -1.82777        0.23487       -0.16371
O         -2.39563       -0.66586        0.70534
C         -0.53266       -0.34111       -0.73340
O         -0.56330       -1.75822       -0.69526
C          0.71236        0.23747        0.01468
C          0.56926        0.05165        1.52666
C          0.85034        1.72089       -0.34282
C          1.94797       -0.55674       -0.49214
O          3.12955       -0.19881        0.22990
H         -3.25971       -0.34892        1.08344
H         -0.48615       -0.12411       -1.83150
H         -0.74289       -2.08301        0.22414
H          0.21814       -0.95297        1.78889
H         -0.12118        0.77393        1.97425
H          1.54584        0.17872        2.02135
H          1.64309        2.19980        0.24393
H          1.08076        1.87704       -1.40232
H         -0.07348        2.28149       -0.13319
H          2.11842       -0.40986       -1.57194
H          1.84588       -1.64075       -0.28258
H          3.35483        0.74048        0.07169
