22
astex_1n2j_07.log	Energy:    -197.5160184
O         -1.52041        1.36718        0.83956
C         -1.50832        0.44176        0.06705
O         -2.69602       -0.03797       -0.44524
C         -0.36585       -0.36960       -0.54746
O         -0.75098       -1.74325       -0.58215
C          0.95686       -0.30802        0.27973
C          1.98650       -1.21163       -0.40663
C          0.70954       -0.75306        1.72301
C          1.45415        1.16031        0.27522
O          1.50052        1.54720       -1.11618
H         -3.49460        0.42953       -0.08504
H         -0.18479        0.00513       -1.58900
H         -1.59109       -1.84773       -1.09348
H          1.57547       -2.21793       -0.57227
H          2.27799       -0.80476       -1.38489
H          2.89681       -1.31841        0.19032
H          0.03511       -0.07406        2.25961
H          1.63972       -0.81815        2.29615
H          0.24664       -1.75150        1.73742
H          0.76041        1.83375        0.81393
H          2.46789        1.24248        0.70100
H          1.70832        2.49801       -1.18721
