22
astex_1n2j_16.log	Energy:    -195.9288682
O         -2.01940        1.51030       -0.02588
C         -1.84049        0.32561       -0.12722
O         -2.87954       -0.51574        0.16912
C         -0.56356       -0.40501       -0.57561
O         -0.74286       -1.78100       -0.20748
C          0.74671        0.20147       -0.00152
C          0.93736        1.61001       -0.56471
C          0.67696        0.23245        1.53034
C          1.92213       -0.70604       -0.46333
O          3.18464       -0.19154       -0.03395
H         -2.66353       -1.48949        0.01809
H         -0.53980       -0.44338       -1.69329
H         -0.44124       -1.93122        0.72353
H          0.14453        2.29742       -0.23114
H          1.90146        2.02883       -0.24260
H          0.94180        1.62711       -1.66001
H          0.47037       -0.75125        1.96394
H          1.61878        0.59564        1.96233
H         -0.10232        0.92539        1.88226
H          1.80845       -1.74353       -0.10331
H          2.02799       -0.71322       -1.56555
H          3.21608       -0.12953        0.94355
