43
astex_1meh_30.log	Energy:    -234.6926570
C          3.90659       -1.82128       -0.24139
O          4.10959       -2.97220        0.01396
C          2.83549       -0.84812        0.05136
C          3.16978        0.39914       -0.53829
C          4.49197        0.24589       -1.24008
O          4.88667       -1.14295       -1.01256
C          2.35315        1.51098       -0.43961
C          2.68903        2.80216       -1.10111
C          1.15016        1.34235        0.30590
C          0.77171        0.13677        0.90233
C          1.63875       -0.98507        0.75235
O          1.36856       -2.20610        1.28113
C         -0.52080        0.01891        1.66209
C         -1.48260       -0.90996        0.97808
C         -2.37133       -0.53279        0.04527
C         -3.29311       -1.55740       -0.58263
C         -4.70421       -1.48999        0.01175
C         -5.44292       -0.24511       -0.41171
O         -5.78591        0.67615        0.28119
O         -5.77829       -0.16179       -1.75099
C         -2.54403        0.86916       -0.42954
O          0.24507        2.40195        0.37330
C          0.57707        3.41227        1.36222
H          4.43658        0.36965       -2.33565
H          5.30111        0.86468       -0.81534
H          1.79794        3.44126       -1.21470
H          3.09287        2.64916       -2.11209
H          3.43745        3.36770       -0.52886
H          0.46515       -2.24893        1.70658
H         -0.32287       -0.32124        2.70094
H         -0.98139        1.02941        1.77785
H         -1.40760       -1.95062        1.29215
H         -2.89174       -2.58365       -0.44005
H         -3.31897       -1.41251       -1.68226
H         -4.64336       -1.50536        1.12521
H         -5.28561       -2.39425       -0.25969
H         -5.48202       -0.91511       -2.30611
H         -3.30076        1.39897        0.17398
H         -1.61221        1.45827       -0.35309
H         -2.86844        0.93366       -1.47532
H          0.53347        2.97614        2.36448
H          1.55949        3.84656        1.15928
H         -0.22285        4.14840        1.21251
