34
astex_1of1_09.log	Energy:    -161.4282109
O         -2.41664        2.28323       -0.90704
C         -3.46400        1.31795       -0.80863
C         -2.94767       -0.10872       -0.56081
C         -2.80355       -0.43940        0.95329
O         -3.75057       -1.50040        1.16568
C         -1.36638       -0.94303        1.24134
C         -0.61251       -0.81246       -0.07460
N          0.76028       -0.31396        0.02671
C          0.96146        1.04480        0.42877
O          0.04054        1.78105        0.73553
N          2.30522        1.47272        0.47206
C          3.45402        0.65256        0.17606
O          4.54049        1.18133        0.25445
C          3.13147       -0.73775       -0.17904
C          1.84543       -1.16885       -0.24321
C          4.28348       -1.64016       -0.45929
C         -1.57275       -0.32046       -1.17584
C         -1.01078       -1.73171       -1.22365
H         -1.78172        2.20539       -0.14832
H         -4.17297        1.63965       -0.02356
H         -3.95815        1.40058       -1.79737
H         -3.68311       -0.83701       -0.99520
H         -3.07277        0.41358        1.60808
H         -3.85468       -1.69591        2.11511
H         -0.89338       -0.34492        2.04189
H         -1.38121       -1.99116        1.59208
H          2.46988        2.45671        0.73621
H          1.58860       -2.20408       -0.50487
H          4.34927       -2.45601        0.27429
H          5.24351       -1.09473       -0.41434
H          4.22058       -2.08689       -1.46111
H         -1.27469        0.41191       -1.93206
H         -0.29932       -1.98263       -2.00709
H         -1.65829       -2.58417       -1.01051
