43
astex_1meh_19.log	Energy:    -241.0960128
C         -2.17944       -2.81557       -0.43521
O         -1.74358       -3.75364       -1.03569
C         -1.90838       -1.36437       -0.40195
C         -2.77403       -0.75398        0.54226
C         -3.63713       -1.82671        1.14933
O         -3.21803       -3.06694        0.49988
C         -2.75127        0.60451        0.80156
C         -3.62966        1.23026        1.82842
C         -1.81441        1.37033        0.04950
C         -0.93900        0.82032       -0.89089
C         -0.98668       -0.58857       -1.10460
O         -0.18054       -1.23653       -1.98136
C          0.02774        1.69205       -1.64443
C          1.46766        1.33553       -1.41401
C          2.08583        1.37829       -0.22209
C          3.54830        1.02000       -0.10949
C          3.72640       -0.33208        0.58865
C          5.15857       -0.77159        0.55003
O          6.04983       -0.49641       -0.21685
O          5.40144       -1.63848        1.59433
C          1.40889        1.75928        1.05194
O         -1.68044        2.73184        0.32707
C         -2.68501        3.57051       -0.30243
H         -4.71286       -1.71669        0.92825
H         -3.47218       -1.97964        2.23001
H         -4.65236        1.37354        1.45261
H         -3.69577        0.61594        2.73765
H         -3.24551        2.21436        2.14299
H          0.50175       -0.63521       -2.39573
H         -0.21393        1.65875       -2.72833
H         -0.12634        2.75928       -1.34660
H          2.01845        1.06827       -2.31536
H          4.09104        1.81405        0.44622
H          4.03836        0.99154       -1.10814
H          3.09783       -1.11275        0.10006
H          3.36156       -0.29141        1.63951
H          6.33403       -1.98266        1.60193
H          0.62345        2.51927        0.89282
H          2.10064        2.16237        1.80059
H          0.90352        0.89102        1.50140
H         -2.57663        3.52234       -1.38996
H         -3.68990        3.27477        0.01047
H         -2.42497        4.56494        0.08093
