43
astex_1meh_04.log	Energy:    -244.4488122
C          2.46206        2.63181       -0.32428
O          2.05877        3.58241       -0.94325
C          2.05055        1.22296       -0.31505
C          2.86624        0.50823        0.60347
C          3.83165        1.48975        1.21249
O          3.52147        2.78466        0.58221
C          2.70751       -0.84508        0.81597
C          3.53531       -1.60265        1.79440
C          1.67391       -1.48789        0.06074
C          0.83994       -0.82349       -0.83987
C          1.04313        0.57602       -1.02275
O          0.24117        1.21248       -1.91543
C         -0.27128       -1.52288       -1.56974
C         -1.43641       -1.75448       -0.65023
C         -2.54579       -1.00202       -0.60889
C         -3.67179       -1.35893        0.33507
C         -3.84993       -0.31671        1.44688
C         -4.73129        0.80869        0.99333
O         -5.84767        0.79823        0.53292
O         -4.08625        2.01413        1.18085
C         -2.77512        0.20552       -1.45687
O          1.42216       -2.83663        0.30523
C          2.27945       -3.74187       -0.43881
H          3.69164        1.64838        2.29560
H          4.89030        1.29230        0.97345
H          3.05698       -2.55757        2.07058
H          3.67783       -1.04291        2.72932
H          4.53049       -1.83313        1.38988
H          0.46297        2.19816       -1.97643
H         -0.57659       -0.92587       -2.46069
H          0.08665       -2.49810       -1.96467
H         -1.29735       -2.60540        0.01872
H         -4.61838       -1.47480       -0.23866
H         -3.49448       -2.35127        0.79976
H         -4.31008       -0.78498        2.34416
H         -2.85931        0.07066        1.77945
H         -4.63763        2.79525        0.91113
H         -3.70241        0.12787       -2.03850
H         -1.94986        0.38303       -2.16691
H         -2.84397        1.11428       -0.83875
H          3.32985       -3.57121       -0.18891
H          2.09954       -3.62729       -1.51177
H          1.93785       -4.72159       -0.08217
