34
astex_1of1_08.log	Energy:    -159.6882291
O          4.44228        1.84674        0.28625
C          3.21150        1.50287        0.93744
C          2.79013        0.08066        0.55062
C          2.60293       -0.06448       -0.99505
O          3.56025       -1.00968       -1.49719
C          1.22575       -0.69954       -1.28298
C          0.51086       -0.78416        0.05725
N         -0.90694       -0.42399        0.05409
C         -1.90100       -1.45186        0.15072
O         -1.62545       -2.62507        0.29177
N         -3.24031       -0.99864        0.08416
C         -3.65779        0.36990       -0.06841
O         -4.84994        0.58259       -0.11135
C         -2.55236        1.33779       -0.15195
C         -1.25852        0.93169       -0.09586
C         -2.92833        2.77196       -0.29815
C          1.45994       -0.30553        1.18029
C          1.04390       -1.76493        1.09048
H          5.18719        1.34275        0.67121
H          3.32464        1.61674        2.02993
H          2.51220        2.27306        0.55980
H          3.58154       -0.64236        0.86955
H          2.74590        0.90222       -1.51947
H          4.42955       -0.58044       -1.62634
H          1.36794       -1.71237       -1.72368
H          0.66030       -0.12599       -2.03540
H         -3.97383       -1.72135        0.14778
H         -0.42019        1.63759       -0.16064
H         -2.48683        3.22276       -1.19739
H         -2.61366        3.36588        0.57129
H         -4.02326        2.89403       -0.38575
H          1.11665        0.29258        2.02158
H          1.75782       -2.52675        0.77120
H          0.36573       -2.18277        1.83631
