43
astex_1meh_12.log	Energy:    -238.6482106
C          3.02681        2.35026        0.04235
O          2.90094        3.36951        0.67080
C          2.36446        1.04505        0.15445
C          2.88393        0.17515       -0.84198
C          3.91353        0.94537       -1.62491
O          3.94540        2.28620       -1.01470
C          2.44195       -1.12466       -0.97380
C          2.95075       -2.03651       -2.03484
C          1.43459       -1.54788       -0.04754
C          0.88867       -0.72440        0.93947
C          1.37474        0.61215        1.03038
O          0.84888        1.40723        1.99917
C         -0.20267       -1.19535        1.85858
C         -1.53118       -1.13549        1.16101
C         -2.48821       -0.22555        1.39423
C         -3.79217       -0.28033        0.63422
C         -3.71152        0.58236       -0.63260
C         -5.00961        0.55672       -1.39305
O         -6.03475       -0.00996       -1.12387
O         -5.01634        1.29382       -2.56814
C         -2.36630        0.87962        2.39262
O          0.89129       -2.82152       -0.19337
C          1.68077       -3.87994        0.41095
H          4.94085        0.55425       -1.52955
H          3.64837        1.11012       -2.68331
H          2.25441       -2.87327       -2.21386
H          3.07051       -1.51934       -2.99709
H          3.92590       -2.46623       -1.76633
H          1.27508        2.32583        1.99594
H         -0.20064       -0.59152        2.79294
H         -0.00640       -2.24342        2.17620
H         -1.66067       -1.91667        0.40891
H         -4.63481        0.05916        1.27342
H         -4.05293       -1.32529        0.36139
H         -2.87987        0.22013       -1.27533
H         -3.44714        1.62647       -0.35944
H         -4.18178        1.75599       -2.78824
H         -2.64743        0.53253        3.39707
H         -3.00779        1.73664        2.15554
H         -1.33247        1.25999        2.45724
H          2.68183       -3.91565       -0.02615
H          1.09827       -4.77258        0.14940
H          1.72202       -3.73877        1.49498
