22
astex_1n2j_02.log	Energy:    -198.9126397
O         -1.85195        1.29129        0.70400
C         -1.61409        0.32747        0.02331
O         -2.57297       -0.64790       -0.15206
C         -0.38401       -0.06385       -0.79822
O         -0.28287       -1.48908       -0.84817
C          0.96490        0.44850       -0.19489
C          2.10643       -0.08712       -1.06346
C          0.94973        1.98104       -0.20447
C          1.13015       -0.04655        1.26585
O          1.34317       -1.45539        1.35433
H         -3.40687       -0.47626        0.36193
H         -0.52423        0.32158       -1.83828
H         -1.14932       -1.89538       -1.10453
H          2.03524        0.24577       -2.10240
H          3.08230        0.22793       -0.67604
H          2.10771       -1.18955       -1.06252
H          1.88680        2.38861        0.19459
H          0.13322        2.39274        0.40867
H          0.83778        2.38727       -1.21528
H          0.25660        0.21805        1.88962
H          2.04382        0.37163        1.73025
H          0.69526       -1.94058        0.78056
