34
astex_1of1_12.log	Energy:    -162.7084432
O         -2.35490        2.29442       -0.89284
C         -3.43483        1.37373       -0.75297
C         -2.96489       -0.08053       -0.56139
C         -2.84998       -0.47784        0.94403
O         -3.74252       -1.55097        1.24036
C         -1.38608       -0.88077        1.25143
C         -0.63011       -0.77999       -0.06399
N          0.74889       -0.29772        0.02982
C          0.97245        1.05948        0.42634
O          0.06415        1.80971        0.73622
N          2.32202        1.46866        0.45915
C          3.45783        0.63073        0.16346
O          4.55180        1.14500        0.22892
C          3.11372       -0.75871       -0.17640
C          1.82161       -1.17155       -0.23262
C          4.25215       -1.68091       -0.44709
C         -1.58965       -0.30114       -1.17129
C         -1.02837       -1.71373       -1.20287
H         -1.72281        2.22629       -0.12924
H         -4.08713        1.70455        0.07643
H         -3.97732        1.49652       -1.71159
H         -3.71597       -0.75183       -1.04530
H         -3.21414        0.31923        1.62881
H         -3.53383       -2.35192        0.72268
H         -1.33467       -1.89236        1.69086
H         -0.95693       -0.19966        2.01360
H          2.50160        2.45167        0.71823
H          1.55027       -2.20585       -0.48183
H          4.16158       -2.17148       -1.42575
H          5.21661       -1.14126       -0.44970
H          4.33169       -2.46365        0.32082
H         -1.29060        0.42209       -1.93670
H         -1.66328       -2.57073       -0.99113
H         -0.31277       -1.96610       -1.98403
