43
astex_1meh_17.log	Energy:    -238.9113541
C         -3.68588       -2.25240       -0.00907
O         -3.50740       -3.40028        0.30604
C         -2.85250       -1.05370        0.14710
C         -3.54040        0.06235       -0.40012
C         -4.86116       -0.43082       -0.92713
O         -4.87595       -1.87752       -0.64937
C         -2.99143        1.32787       -0.39449
C         -3.69887        2.51114       -0.95559
C         -1.69283        1.45332        0.19561
C         -0.98596        0.38736        0.75566
C         -1.59480       -0.90114        0.72136
O         -0.89986       -1.93068        1.26825
C          0.35183        0.56708        1.41140
C          1.48083        0.16741        0.50922
C          2.65806        0.80441        0.42399
C          3.74453        0.28576       -0.48962
C          4.53232       -0.83909        0.19469
C          5.69308       -1.28277       -0.65746
O          5.79382       -2.29266       -1.30072
O          6.77509       -0.41931       -0.69800
C          3.00828        2.03030        1.20501
O         -1.18137        2.74457        0.29418
C         -0.18866        3.07018       -0.71576
H         -5.73977       -0.02026       -0.40033
H         -4.97586       -0.33923       -2.02067
H         -3.77942        2.45325       -2.04973
H         -3.17033        3.44892       -0.71256
H         -4.71497        2.60837       -0.54815
H         -1.41507       -2.80057        1.20860
H          0.45822        1.62058        1.76223
H          0.39732       -0.06124        2.33413
H          1.28212       -0.73224       -0.07877
H          4.42436        1.10672       -0.79355
H          3.30424       -0.09164       -1.43842
H          4.87359       -0.52640        1.20195
H          3.86131       -1.71030        0.37795
H          6.67675        0.40093       -0.16897
H          3.43260        2.81673        0.56788
H          3.74853        1.80205        1.98447
H          2.13380        2.46592        1.71422
H          0.10322        4.08673       -0.42692
H         -0.65391        3.05520       -1.70535
H          0.65991        2.37994       -0.65991
