43
astex_1meh_28.log	Energy:    -235.5978717
C         -3.30651       -2.42810       -0.13755
O         -2.99784       -3.55665       -0.38681
C         -2.61514       -1.12409       -0.11653
C         -3.53749       -0.11750        0.27068
C         -4.87005       -0.77222        0.51566
O         -4.65430       -2.19153        0.24216
C         -3.18176        1.21445        0.38234
C         -4.14517        2.25767        0.83088
C         -1.82672        1.52991        0.07445
C         -0.87536        0.57592       -0.29815
C         -1.28978       -0.78541       -0.38876
O         -0.45937       -1.79402       -0.75016
C          0.54228        0.97766       -0.59035
C          1.52282        0.31073        0.32766
C          2.66754       -0.27317       -0.05895
C          3.59150       -0.88887        0.96885
C          4.74018        0.05905        1.33802
C          5.81938        0.05268        0.28530
O          6.02283        0.87721       -0.56677
O          6.67584       -1.03263        0.30240
C          3.12872       -0.36006       -1.47528
O         -1.38488        2.84273        0.23633
C         -1.72319        3.72452       -0.86663
H         -5.21382       -0.71393        1.56307
H         -5.66516       -0.44694       -0.17717
H         -4.76677        1.90573        1.66647
H         -3.62362        3.16072        1.18871
H         -4.82217        2.55956        0.01982
H          0.48979       -1.49553       -0.86260
H          0.65155        2.08477       -0.46437
H          0.77618        0.78438       -1.66158
H          1.23777        0.35729        1.38114
H          3.02670       -1.14541        1.89117
H          3.98567       -1.85649        0.59516
H          4.35004        1.09850        1.44653
H          5.15501       -0.19849        2.33240
H          6.49173       -1.70515        0.99322
H          3.47879       -1.36546       -1.74344
H          2.35156       -0.07878       -2.20011
H          3.97785        0.32746       -1.65158
H         -2.80508        3.76227       -1.01843
H         -1.33686        4.68869       -0.51290
H         -1.20471        3.39693       -1.77250
