34
astex_1of1_01.log	Energy:    -163.2320176
O          2.81796        2.11509       -0.63857
C          3.48466        1.42115        0.41678
C          2.97129       -0.02080        0.55808
C          2.78406       -0.68329       -0.84347
O          3.49636       -1.93378       -0.87543
C          1.30181       -1.07563       -1.03361
C          0.60285       -0.71522        0.26795
N         -0.77267       -0.23056        0.14615
C         -1.01981        1.17247        0.04134
O         -0.13083        2.00468        0.08761
N         -2.37437        1.54036       -0.10683
C         -3.48965        0.62651       -0.16115
O         -4.58993        1.11370       -0.29129
C         -3.11621       -0.79214       -0.04745
C         -1.82097       -1.17099        0.09526
C         -4.24009       -1.76761       -0.10023
C          1.61137       -0.07742        1.24095
C          1.02491       -1.44889        1.53753
H          1.84410        2.18842       -0.44167
H          4.54434        1.44822        0.09819
H          3.37376        1.98905        1.35822
H          3.70843       -0.61845        1.14678
H          3.15188       -0.02890       -1.66196
H          4.44625       -1.79023       -1.03992
H          0.86345       -0.54482       -1.89770
H          1.22807       -2.16009       -1.25549
H         -2.57410        2.54996       -0.18295
H         -1.51853       -2.22354        0.18012
H         -4.79461       -1.67822       -1.04933
H         -3.91200       -2.80931       -0.00479
H         -4.96946       -1.57233        0.70352
H          1.34665        0.77068        1.87423
H          0.32712       -1.55630        2.36458
H          1.65016       -2.33906        1.44246
