43
astex_1meh_29.log	Energy:    -233.8672316
C          3.14398       -2.41558       -0.22706
O          2.88986       -3.57353       -0.06911
C          2.49394       -1.13525        0.11952
C          3.29423       -0.06650       -0.35916
C          4.50830       -0.65208       -1.02789
O          4.34463       -2.09995       -0.91558
C          2.93970        1.26011       -0.18981
C          3.80735        2.37742       -0.65472
C          1.71094        1.49773        0.48929
C          0.89358        0.48246        0.99834
C          1.31155       -0.86720        0.80986
O          0.61792       -1.93815        1.26739
C         -0.34678        0.83013        1.77274
C         -1.60735        0.13966        1.34493
C         -2.07961        0.05275        0.09085
C         -3.38630       -0.65778       -0.18370
C         -4.53936        0.35059       -0.23678
C         -5.83914       -0.32152       -0.60329
O         -6.43473       -0.24095       -1.64406
O         -6.41338       -1.10975        0.37603
C         -1.38720        0.60773       -1.10796
O          1.32901        2.81292        0.75964
C          0.72194        3.49678       -0.36699
H          4.57600       -0.43743       -2.10824
H          5.45934       -0.41366       -0.52004
H          3.70387        2.54959       -1.73486
H          3.56384        3.31977       -0.13681
H          4.86982        2.17879       -0.45275
H         -0.23650       -1.68308        1.71760
H         -0.51163        1.93687        1.72435
H         -0.15071        0.63397        2.85180
H         -2.18260       -0.27029        2.17706
H         -3.58424       -1.43574        0.58100
H         -3.32065       -1.21361       -1.14578
H         -4.32008        1.13839       -0.99400
H         -4.63085        0.89554        0.72472
H         -5.91116       -1.17055        1.21697
H         -2.05364        0.73091       -1.97111
H         -0.93158        1.59383       -0.89912
H         -0.56774       -0.05766       -1.42591
H          0.46045        4.46896        0.06827
H         -0.17627        2.94705       -0.69256
H          1.43928        3.60703       -1.18427
