41
omegacsd_CEJTIU_14.log	Energy:     -37.9392916
C         -5.78693       -0.24579        1.21237
N         -5.13822       -0.20622       -0.12852
C         -5.56330       -1.36432       -0.96541
C         -3.73783        0.08532       -0.13872
C         -3.12857        0.77996        0.93162
C         -1.80168        1.19075        0.85847
C         -1.04463        0.90837       -0.29024
C         -1.63271        0.21678       -1.36645
C         -2.96102       -0.18945       -1.28848
N          0.32976        1.30854       -0.43665
C          1.10398        1.86641        0.58400
O          0.68926        2.21771        1.67296
N          2.48914        2.13778        0.28063
C          3.44165        1.51046       -0.56261
O          4.55866        1.98863       -0.56807
C          3.06587        0.29905       -1.38770
C          2.95002       -0.93348       -0.53138
C          4.04172       -1.32655        0.25957
C          3.95286       -2.47560        1.04745
C          2.78008       -3.23926        1.04850
C          1.69562       -2.84919        0.25810
C          1.77636       -1.69849       -0.53333
H         -5.39883       -1.03390        1.87583
H         -5.65768        0.73114        1.71130
H         -6.87211       -0.39585        1.08880
H         -5.14096       -2.32802       -0.64202
H         -6.66298       -1.44177       -0.95003
H         -5.27261       -1.18645       -2.01565
H         -3.69617        1.01745        1.83088
H         -1.35318        1.73216        1.70073
H         -1.06382       -0.00121       -2.26788
H         -3.40243       -0.71091       -2.13681
H          0.76578        1.09197       -1.33854
H          2.89519        2.85899        0.91241
H          3.87585        0.13783       -2.14431
H          2.15607        0.47823       -1.99657
H          4.95724       -0.73303        0.26099
H          4.79944       -2.77659        1.66393
H          2.71268       -4.13342        1.66561
H          0.78008       -3.43967        0.25931
H          0.92138       -1.40824       -1.13990
