36
omegapdb_1qxw_27.log	Energy:    -105.7535202
C          4.47093        0.87791        0.43967
C          4.53188        0.75733       -1.07046
C          3.62068       -0.17044       -0.28156
N          2.17156       -0.03312       -0.43685
C          1.44409       -0.41570        0.80966
C         -0.07488       -0.25563        0.57045
C         -0.66018       -1.10554       -0.60517
N         -0.91420       -2.51324       -0.21588
C         -1.93472       -0.48200       -1.20413
C         -3.12654       -0.40772       -0.23939
C         -4.02372        0.80871       -0.50438
C         -3.48892        2.08600        0.14123
O         -0.27241        1.14418        0.46127
O         -0.77655       -0.66817        1.74991
H          5.31926        0.56119        1.03945
H          3.99846        1.74889        0.88533
H          5.42154        0.34812       -1.54442
H          4.10786        1.54536       -1.68935
H          3.90572       -1.22936       -0.18268
H          1.91057        0.93054       -0.69382
H          1.74305        0.18659        1.69555
H          1.66657       -1.47738        1.05402
H          0.12923       -1.11959       -1.41451
H         -0.06633       -2.94400        0.14273
H         -1.60778       -2.56077        0.52877
H         -1.68457        0.52199       -1.60145
H         -2.22284       -1.08493       -2.09187
H         -2.77601       -0.39918        0.81525
H         -3.72458       -1.33606       -0.33010
H         -5.04260        0.60311       -0.11895
H         -4.14808        0.95865       -1.59495
H         -3.61159        2.06675        1.23086
H         -2.41594        2.23328       -0.06867
H         -4.01423        2.97282       -0.23149
H         -1.21776        1.37644        0.22637
H         -0.63149       -0.04367        2.48808
