25
omegapdb_1m5f_06.log	Energy:    -164.5472840
O         -2.43775       -2.52756        0.66114
C         -1.63834       -1.85408       -0.22008
O         -0.92080       -2.45480       -0.98767
C         -1.77048       -0.39158       -0.06741
N         -2.88278        0.25546        0.31047
O         -2.61662        1.59995        0.30815
C         -1.27137        1.79382       -0.08945
C         -0.70330        0.56344       -0.33919
C          0.66862        0.23351       -0.78759
C          1.69890        0.44575        0.34617
N          2.19472        1.83903        0.35265
C          2.84903       -0.55504        0.15170
O          3.93198       -0.37426       -0.35102
O          2.50771       -1.77335        0.67062
C         -0.83715        3.18795       -0.13651
H         -2.35756       -3.51945        0.56029
H          0.93684        0.84478       -1.67780
H          0.69897       -0.82864       -1.14183
H          1.21024        0.23224        1.33959
H          2.70944        2.05348       -0.50118
H          2.82619        2.00159        1.13448
H          3.21371       -2.46577        0.54406
H          0.18854        3.29248        0.27713
H         -0.80334        3.56956       -1.17102
H         -1.49822        3.85584        0.43889
