57
omegacsd_SPIRIL_09.log	Energy:     -29.3545541
C         -3.16986       -2.03950       -0.34801
C         -2.96541       -0.89596        0.66981
C         -3.27841       -1.45673        2.09506
O         -2.73697       -2.37071        2.67570
N         -4.30952       -0.69513        2.64635
C         -4.84974        0.31108        1.70176
N         -4.01546        0.16971        0.45543
C         -3.68838        1.37534       -0.25004
C         -3.19703        1.26249       -1.56867
C         -2.97265        2.40758       -2.32920
C         -3.22924        3.67764       -1.79952
C         -3.71398        3.79248       -0.49459
C         -3.94071        2.65516        0.28287
C         -1.51243       -0.38667        0.68510
C         -0.56659       -1.56157        0.38196
N         -0.72395       -2.11884       -0.99362
C          0.21428       -1.48977       -1.98334
C          1.62608       -2.08828       -1.81874
C          2.50760       -1.25326       -0.94553
C          3.77362       -0.90694       -1.21965
C          4.55271       -0.08849       -0.25528
C          4.83660        1.25648       -0.54288
C          5.57143        2.03326        0.35570
C          6.01033        1.42800        1.53680
C          5.74643        0.09296        1.85568
C          5.00784       -0.66326        0.94276
F          6.71514        2.16116        2.40240
C          4.52057       -1.29693       -2.45489
C         -2.14053       -2.02011       -1.48416
H         -3.10005       -3.01687        0.18098
H         -4.19303       -1.99587       -0.77238
H         -4.74758       -0.87435        3.53766
H         -5.90691        0.08003        1.42193
H         -4.80760        1.33193        2.15632
H         -3.00541        0.27230       -1.99707
H         -2.59813        2.31237       -3.34837
H         -3.05385        4.56634       -2.40005
H         -3.91458        4.77797       -0.07414
H         -4.30801        2.76902        1.30218
H         -1.26196        0.06866        1.66134
H         -1.35807        0.41943       -0.05823
H          0.49058       -1.25914        0.55985
H         -0.77310       -2.40363        1.08924
H         -0.14582       -1.72452       -3.00892
H          0.24963       -0.38256       -1.90854
H          2.07736       -2.23348       -2.82239
H          1.54749       -3.11124       -1.38172
H          2.03046       -0.93464       -0.00960
H          4.47699        1.69856       -1.47195
H          5.79289        3.07670        0.13949
H          6.10279       -0.34755        2.78523
H          4.78318       -1.70788        1.16049
H          3.86646       -1.75398       -3.21133
H          5.30828       -2.02687       -2.21773
H          5.01094       -0.43225       -2.92192
H         -2.29952       -2.90471       -2.14200
H         -2.31647       -1.10872       -2.11078
