39
omegacsd_FIBREN_18.log	Energy:     -46.0319905
N         -2.57529        1.48806        1.14803
C         -1.24273        1.77380        0.92579
N         -0.37747        1.00142        0.18392
C         -0.82732       -0.13078       -0.46086
C         -2.18424       -0.50863       -0.27748
C         -2.98990        0.35590        0.53771
O         -4.26325       -0.16597        0.59160
C         -4.17991       -1.37124       -0.22580
N         -2.98376       -1.57958       -0.73293
C         -5.44945       -2.09635       -0.31045
N          0.01988       -0.84935       -1.27360
C          1.45809       -0.55717       -1.50052
C          1.71275        0.91049       -1.88948
C          1.62858        2.02513       -0.86362
O          1.14643        3.11040       -1.09302
O          2.33193        1.91024        0.30924
C          2.36877       -1.05105       -0.38531
C          3.74242       -1.15939       -0.67111
C          4.63060       -1.62052        0.30079
C          4.15893       -1.98426        1.56806
C          2.79642       -1.88318        1.85407
C          1.90216       -1.41841        0.88173
C         -0.68149        3.00995        1.52538
H         -5.81094       -2.39864        0.68838
H         -5.35152       -3.00975       -0.92338
H         -6.24129       -1.47272       -0.76274
H         -0.33609       -1.72844       -1.65888
H          1.71804       -1.17021       -2.42206
H          0.99424        1.18354       -2.70275
H          2.72099        0.98544       -2.35642
H          2.53186        0.98820        0.59716
H          4.12234       -0.88414       -1.65419
H          5.69350       -1.69853        0.07317
H          4.85338       -2.34471        2.32604
H          2.42205       -2.16591        2.83822
H          0.84334       -1.34411        1.13242
H          0.06182        2.77906        2.30603
H         -1.45759        3.65365        1.96685
H         -0.13073        3.60048        0.75815
