61
omegapdb_1v2k_12.log	Energy:     -54.7404816
N         -4.91350        4.26322       -1.48066
C         -5.69931        3.27709       -1.99384
C         -6.13344        2.17513       -1.25262
C         -5.75764        2.06721        0.10836
C         -4.93812        3.08986        0.64462
C         -4.55356        4.15561       -0.17328
N         -6.28685        1.04428        0.93665
C         -6.79341       -0.19446        0.27552
C         -5.66808       -1.14596       -0.17152
C         -4.35196       -0.86234        0.57493
C         -4.60783       -0.50695        2.04897
C         -5.55292        0.70420        2.19286
C         -3.46122       -2.10659        0.51671
O         -3.90162       -3.24581        0.59311
N         -2.08507       -1.92012        0.38403
C         -1.19782       -3.11579        0.30796
C          0.22265       -2.75711        0.77207
N          0.84239       -1.66443       -0.02919
C         -0.14635       -0.67811       -0.56037
C         -1.40780       -0.60187        0.32000
S          2.04903       -2.15243       -1.18041
O          1.50249       -1.96027       -2.50956
O          2.50472       -3.46235       -0.75577
C          3.30384       -0.98864       -0.91692
C          4.16126       -1.11251        0.14891
C          5.19337       -0.14691        0.36058
C          5.32100        0.93884       -0.54860
C          4.41958        1.03388       -1.65568
C          3.43831        0.09145       -1.83459
C          6.35098        1.90993       -0.33722
C          7.19071        1.76582        0.73699
C          7.08219        0.68350        1.65703
C          6.09905       -0.25315        1.46605
Cl         8.43685        2.92571        1.00944
H         -5.97901        3.39147       -3.04835
H         -6.76350        1.42309       -1.71947
H         -4.62620        3.06279        1.68582
H         -3.92737        4.96679        0.21723
H         -7.45802       -0.70468        1.01016
H         -7.44048        0.08163       -0.58598
H         -5.97954       -2.20004        0.00332
H         -5.49824       -1.06395       -1.26128
H         -3.84500        0.00539        0.07461
H         -3.65178       -0.30412        2.56546
H         -5.04856       -1.38731        2.56277
H         -6.32939        0.48723        2.96283
H         -4.99321        1.59222        2.56352
H         -1.62886       -3.93113        0.93812
H         -1.19460       -3.49987       -0.73850
H          0.20448       -2.41125        1.83295
H          0.86577       -3.67201        0.75468
H         -0.44095       -0.91528       -1.61389
H          0.35212        0.31888       -0.57090
H         -2.10639        0.16513       -0.09449
H         -1.13505       -0.27743        1.35153
H          4.07695       -1.95174        0.84914
H          4.53178        1.86321       -2.35421
H          2.75519        0.14913       -2.69100
H          6.45148        2.74415       -1.03214
H          7.78072        0.61854        2.49210
H          5.99208       -1.09513        2.15236
