50
omegapdb_1xom_13.log	Energy:    -144.1196868
O         -5.37139       -2.94318       -0.07362
C         -5.02881       -1.61004       -0.16574
O         -5.80990       -0.82714       -0.64791
C         -3.63529       -1.41094        0.39649
C         -2.66048       -1.14711       -0.76879
C         -2.55911        0.34284       -1.09919
C         -2.00003        1.16634        0.09809
C         -2.32362        0.48182        1.45795
C         -3.66503       -0.25112        1.41289
C         -2.68954        2.47331        0.07734
N         -3.25068        3.48239        0.06724
C         -0.48735        1.34775       -0.01679
C          0.12469        2.59542        0.10894
C          1.51843        2.72316        0.00926
C          2.31221        1.60148       -0.21647
O          3.69003        1.61706       -0.34291
C          4.36181        2.89002       -0.17959
C          1.70081        0.31857       -0.33565
C          0.31102        0.21029       -0.22996
O          2.30836       -0.88122       -0.59236
C          3.76514       -1.02252       -0.46159
C          4.00544       -2.42979       -1.03012
C          4.89079       -3.15993       -0.00885
C          4.70593       -2.43256        1.33706
C          4.17724       -1.02399        1.01850
H         -6.27542       -3.13840       -0.43624
H         -3.32098       -2.35312        0.91738
H         -1.65352       -1.53888       -0.49629
H         -2.96291       -1.71578       -1.67001
H         -1.92188        0.49810       -1.99139
H         -3.56727        0.71734       -1.38328
H         -1.51286       -0.22740        1.72032
H         -2.32538        1.23485        2.27019
H         -4.47099        0.46987        1.15018
H         -3.92194       -0.63805        2.41728
H         -0.46078        3.49816        0.28451
H          1.96214        3.71152        0.10495
H          4.04339        3.59003       -0.95771
H          4.18891        3.28776        0.82426
H          5.41266        2.60394       -0.31561
H         -0.14018       -0.78277       -0.32398
H          4.24193       -0.21702       -1.05506
H          3.03123       -2.94618       -1.15654
H          4.46533       -2.39375       -2.02959
H          5.94890       -3.13007       -0.32337
H          4.61944       -4.22537        0.06943
H          3.98597       -2.97792        1.97279
H          5.65083       -2.39028        1.90225
H          3.31513       -0.76525        1.65933
H          4.94057       -0.25008        1.20702
