36
omegapdb_1qxw_10.log	Energy:    -106.4634851
C         -4.44677       -0.83784        0.41893
C         -3.88938       -1.55602       -0.79582
C         -3.09216       -0.43056       -0.13851
N         -1.90352       -0.69922        0.67619
C         -0.63744       -0.53702       -0.09432
C         -0.18682        0.93887       -0.01170
C          1.32021        1.17758       -0.36910
N          1.59249        2.59659       -0.71121
C          2.24581        0.75097        0.78695
C          2.58225       -0.74321        0.78962
C          3.47525       -1.14896       -0.39041
C          3.76681       -2.64718       -0.39411
O         -0.97858        1.66566       -0.97379
O         -0.45001        1.56064        1.22931
H         -4.51323       -1.36283        1.36905
H         -5.29142       -0.16190        0.30480
H         -4.33974       -1.39099       -1.77144
H         -3.56440       -2.58782       -0.70419
H         -2.99655        0.52790       -0.68008
H         -1.94163       -1.63255        1.09887
H          0.16032       -1.18514        0.35183
H         -0.72565       -0.82101       -1.16663
H          1.54726        0.56969       -1.28709
H          1.40472        3.20075        0.08572
H          0.97862        2.89690       -1.46820
H          3.18712        1.33976        0.72357
H          1.78356        1.03581        1.75518
H          1.64616       -1.34596        0.78283
H          3.08793       -0.99747        1.74229
H          4.42590       -0.58029       -0.35155
H          2.99610       -0.85426       -1.34591
H          4.27500       -2.96204        0.52464
H          4.41573       -2.92026       -1.23447
H          2.85052       -3.24050       -0.48253
H         -1.38817        2.45011       -0.55195
H         -1.21888        1.13025        1.69710
