57
omegacsd_SPIRIL_02.log	Energy:     -32.1042710
C         -2.38822       -0.62581        1.26547
C         -3.34623       -0.97678        0.11285
C         -3.54102       -2.52144        0.02935
O         -2.70266       -3.39036       -0.07347
N         -4.91324       -2.78653        0.05144
C         -5.73347       -1.56825        0.25383
N         -4.72696       -0.46594        0.44804
C         -5.12311        0.86489        0.11428
C         -4.23287        1.93120        0.37791
C         -4.63942        3.24574        0.16943
C         -5.92837        3.52998       -0.29870
C         -6.81022        2.47918       -0.55676
C         -6.41997        1.15229       -0.35947
C         -2.80312       -0.47375       -1.23793
C         -1.35764       -0.94703       -1.46263
N         -0.49701       -0.46935       -0.32868
C          0.94612       -0.78808       -0.59211
C          1.82254        0.15334        0.25423
C          3.28130       -0.04562       -0.00772
C          4.24576        0.72852        0.51657
C          5.67312        0.46736        0.20887
C          6.42529        1.42338       -0.49463
C          7.76977        1.19009       -0.79044
C          8.33456       -0.01489       -0.36185
C          7.61835       -0.98733        0.34120
C          6.27387       -0.73313        0.62248
F          9.62042       -0.24740       -0.63759
C          3.97756        1.88642        1.42479
C         -0.95737       -1.09025        0.95807
H         -2.74141       -1.06747        2.21585
H         -2.39795        0.47904        1.41784
H         -5.31961       -3.70896        0.10668
H         -6.40316       -1.40604       -0.62644
H         -6.35245       -1.63678        1.18109
H         -3.22845        1.72404        0.76119
H         -3.94651        4.06179        0.37621
H         -6.23785        4.55923       -0.45717
H         -7.81587        2.69138       -0.92002
H         -7.12774        0.35792       -0.57913
H         -2.82382        0.63681       -1.26301
H         -3.44597       -0.80966       -2.07191
H         -1.33644       -2.05540       -1.58175
H         -0.97116       -0.50387       -2.40544
H          1.16237       -0.61453       -1.66924
H          1.20268       -1.84902       -0.38489
H          1.60943        0.00535        1.33468
H          1.52920        1.20640        0.04607
H          3.53831       -0.87484       -0.66829
H          5.95313        2.35223       -0.81521
H          8.35612        1.92545       -1.33832
H          8.08900       -1.91513        0.66132
H          5.68658       -1.47069        1.17002
H          3.37101        1.58146        2.28944
H          4.89840        2.33443        1.82024
H          3.42344        2.67953        0.90269
H         -0.27745       -0.75531        1.77062
H         -0.91915       -2.20528        0.93512
