57
omegacsd_SPIRIL_18.log	Energy:     -29.9337641
C         -2.49769       -1.01390        1.28960
C         -3.13392       -1.37564       -0.05635
C         -4.39450       -2.26485        0.22404
O         -4.50307       -3.20128        0.98346
N         -5.43403       -1.78560       -0.57641
C         -4.99615       -0.65113       -1.43484
N         -3.67175       -0.20778       -0.86707
C         -3.74745        1.07975       -0.19000
C         -4.76265        1.42174        0.72051
C         -4.78475        2.70334        1.27484
C         -3.80433        3.64015        0.93095
C         -2.79279        3.29341        0.02913
C         -2.75862        2.01632       -0.53358
C         -2.17659       -2.17345       -0.97168
C         -0.76074       -2.27868       -0.37806
N         -0.21183       -0.98785        0.12033
C          0.04765       -0.02772       -1.00187
C          1.08195        1.03026       -0.57156
C          2.43935        0.44664       -0.33292
C          3.58478        1.14660       -0.35945
C          4.88119        0.47489       -0.10063
C          5.10231       -0.18124        1.12227
C          6.32044       -0.81479        1.37857
C          7.30021       -0.77551        0.38295
C          7.11585       -0.13548       -0.84605
C          5.89098        0.49358       -1.07800
F          8.46923       -1.37821        0.61642
C          3.65962        2.61486       -0.64363
C         -1.08723       -0.40642        1.18593
H         -2.44862       -1.94805        1.89786
H         -3.14972       -0.33276        1.87029
H         -6.36163       -2.17628       -0.62164
H         -4.80570       -0.99939       -2.47957
H         -5.75632        0.15887       -1.46135
H         -5.52401        0.69465        0.99806
H         -5.56969        2.97281        1.98106
H         -3.82833        4.63772        1.36542
H         -2.02950        4.02321       -0.23843
H         -1.96689        1.72789       -1.23487
H         -2.12583       -1.69030       -1.96942
H         -2.57013       -3.19170       -1.15575
H         -0.06191       -2.69661       -1.13402
H         -0.75401       -2.99359        0.47647
H          0.44637       -0.59351       -1.87177
H         -0.88100        0.48360       -1.35661
H          1.12341        1.81988       -1.34969
H          0.74600        1.53858        0.35848
H          2.43915       -0.62453       -0.10802
H          4.31559       -0.19465        1.87754
H          6.49578       -1.32298        2.32493
H          7.89919       -0.12664       -1.60133
H          5.71400        0.99942       -2.02698
H          4.65689        3.02846       -0.44320
H          3.42170        2.82737       -1.69472
H          2.95064        3.17816       -0.02191
H         -1.16278        0.69668        1.07882
H         -0.54937       -0.59000        2.14599
