45
omegacsd_FABSOQ10_08.log	Energy:     -98.3736205
S         -0.64432       -0.16411       -0.62177
C         -1.12284       -1.31786        0.59240
C         -0.12115       -1.48897        1.50160
C          1.04859       -0.69230        1.21896
C          0.92683        0.06906        0.09351
C          1.87705        1.04709       -0.51534
O          1.64343        2.34310        0.06544
C          3.33196        0.64855       -0.36824
C          4.29254        1.62395       -0.08119
C          5.64595        1.28951        0.02677
C          6.01894       -0.04493       -0.17176
O          7.30149       -0.53887       -0.10002
C          8.37174        0.39233        0.19071
C          5.06916       -1.04426       -0.47699
C          3.73166       -0.68504       -0.57509
C         -2.44830       -2.00005        0.51163
O         -2.39090       -3.02422       -0.49473
C         -3.60283       -1.05390        0.25787
C         -4.65302       -1.45888       -0.58756
C         -5.74027       -0.62657       -0.81552
C         -5.77532        0.63001       -0.17324
O         -6.90305        1.35377       -0.48701
C         -7.05139        2.66819        0.10236
C         -4.75134        1.04716        0.68561
C         -3.66639        0.18992        0.89494
H         -0.16282       -2.15412        2.35433
H          1.92907       -0.72714        1.84885
H          1.65170        1.24578       -1.59692
H          1.69185        2.29873        1.04424
H          3.97945        2.66313        0.05475
H          6.37623        2.05815        0.25310
H          8.44014        1.15030       -0.59481
H          8.22957        0.83836        1.17901
H          9.25034       -0.26624        0.17893
H          5.40057       -2.06861       -0.63123
H          2.98544       -1.44561       -0.81426
H         -2.64996       -2.60973        1.43322
H         -2.14013       -2.65073       -1.36715
H         -4.60736       -2.44336       -1.06222
H         -6.55943       -0.91832       -1.46844
H         -8.00892        2.99705       -0.32262
H         -7.11184        2.59147        1.19158
H         -6.23554        3.32273       -0.21753
H         -4.78180        2.01031        1.18249
H         -2.86452        0.50539        1.56518
