24
omegapdb_1gs5_14.log	Energy:    -236.8732616
C         -0.60086        0.21402        0.14899
C         -0.49360        1.71396       -0.14519
O         -0.96637        2.36400       -1.04222
O          0.29205        2.31563        0.81200
C          0.64765       -0.51269       -0.38591
C          1.86133       -0.26327        0.51202
C          3.13092       -0.71530       -0.16090
O          3.28125       -1.10234       -1.28913
O          4.26635       -0.66578        0.62626
N         -1.82359       -0.29115       -0.49576
C         -2.85419       -0.86119        0.27863
O         -2.71206       -0.98816        1.48041
C         -4.06110       -1.28539       -0.49997
H         -0.68856        0.06436        1.27093
H          0.38096        3.29896        0.67600
H          0.43992       -1.60406       -0.44475
H          0.87237       -0.20996       -1.43204
H          1.72822       -0.78164        1.48571
H          1.93722        0.82297        0.76535
H          4.13923       -0.34676        1.54507
H         -1.92410       -0.11673       -1.49293
H         -3.82707       -2.03380       -1.26985
H         -4.80351       -1.74318        0.17699
H         -4.56014       -0.43978       -0.99476
