36
omegapdb_1qxw_01.log	Energy:    -105.7368859
C         -5.26874       -0.27982        0.33886
C         -4.64159        1.09324        0.47198
C         -4.07019        0.09163       -0.52621
N         -2.78989       -0.54546       -0.17296
C         -1.62663        0.20619       -0.72930
C         -0.34968       -0.37948       -0.09701
C          0.96020        0.38629       -0.45538
N          0.75912        1.80802       -0.06474
C          2.17658       -0.29284        0.20661
C          3.50483        0.32464       -0.24149
C          4.69972       -0.40831        0.38604
C          6.02856        0.20622       -0.04696
O         -0.40089       -0.47619        1.31704
O         -0.26150       -1.72638       -0.58330
H         -5.14065       -0.99907        1.14678
H         -6.24582       -0.38839       -0.12380
H         -4.07126        1.32870        1.36974
H         -5.16898        1.96965        0.10654
H         -4.23402        0.27754       -1.59746
H         -2.77017       -1.51392       -0.52662
H         -1.71064        1.28535       -0.45509
H         -1.54510        0.16224       -1.83595
H          1.07660        0.34901       -1.57159
H          1.58753        2.35565       -0.28248
H          0.61099        1.87797        0.94212
H          2.07498       -0.24461        1.30988
H          2.16650       -1.37296       -0.04375
H          3.54461        1.39623        0.03209
H          3.58498        0.29126       -1.34585
H          4.61859       -0.38457        1.49063
H          4.67441       -1.47952        0.10464
H          6.10639        1.25714        0.25373
H          6.87503       -0.32575        0.40230
H          6.15768        0.16599       -1.13465
H         -1.33336       -0.60773        1.63518
H          0.17784       -2.30416        0.07473
