24
omegapdb_1gs5_19.log	Energy:    -235.4950594
C          0.39195       -0.57574        0.00226
C          0.35273       -2.11044        0.08506
O          1.28917       -2.84706       -0.10261
O         -0.85544       -2.65350        0.39023
C         -0.42221       -0.09649       -1.22239
C         -1.28198        1.11810       -0.86697
C         -2.40267        0.74504        0.06076
O         -2.59588       -0.32781        0.58998
O         -3.31510        1.72888        0.35240
N          1.80076       -0.13642       -0.06306
C          2.14386        1.18765        0.22767
O          1.27818        2.01269        0.48451
C          3.61178        1.48761        0.18922
H         -0.06341       -0.15888        0.95054
H         -1.60515       -1.98749        0.54997
H          0.26237        0.16451       -2.05670
H         -1.06281       -0.91417       -1.61531
H         -0.62365        1.89478       -0.37928
H         -1.67008        1.59633       -1.78877
H         -3.12450        2.61441       -0.03777
H          2.49211       -0.84861       -0.30771
H          4.05741        1.30288       -0.79761
H          4.17856        0.90007        0.92622
H          3.78558        2.55106        0.42808
