39
omegacsd_FIBREN_17.log	Energy:     -46.1824092
N         -3.04502        1.36798        1.35214
C         -1.71744        1.73757        1.43081
N         -0.69020        1.23589        0.67053
C         -0.94546        0.27425       -0.29077
C         -2.28774       -0.17611       -0.43508
C         -3.27551        0.41935        0.41721
O         -4.49679       -0.14503        0.12607
C         -4.19344       -1.10188       -0.93326
N         -2.92058       -1.12811       -1.26493
C         -5.37483       -1.82946       -1.40064
N          0.03591       -0.18835       -1.14246
C          1.50644        0.01950       -0.99913
C          1.85754        1.47295       -0.64155
C          3.25200        1.83473       -1.07415
O          4.21380        2.04250       -0.38701
O          3.43936        1.95330       -2.44333
C          2.10090       -0.97540       -0.01552
C          1.80365       -0.91762        1.35204
C          2.36144       -1.85224        2.22922
C          3.22005       -2.84451        1.74639
C          3.52153       -2.90110        0.38168
C          2.96346       -1.97065       -0.49891
C         -1.37016        2.77977        2.43675
H         -5.26251       -2.91864       -1.25297
H         -5.55103       -1.66364       -2.47861
H         -6.28734       -1.51432       -0.86286
H         -0.22452       -1.00173       -1.71687
H          1.91683       -0.19593       -2.03201
H          1.11229        2.18072       -1.06655
H          1.75685        1.63773        0.46220
H          2.63293        1.84766       -2.99105
H          1.13995       -0.14077        1.73758
H          2.12844       -1.80314        3.29217
H          3.65659       -3.56956        2.43175
H          4.19537       -3.66893        0.00404
H          3.21155       -2.02104       -1.55807
H         -1.80947        3.75307        2.15829
H         -1.77959        2.52664        3.42979
H         -0.28262        2.91888        2.53972
