39
omegacsd_FIBREN_10.log	Energy:     -48.3295150
N         -2.72844        1.68566        1.04589
C         -1.37935        1.90490        0.88695
N         -0.50546        1.09701        0.19380
C         -0.96072       -0.05126       -0.43214
C         -2.34509       -0.36050       -0.30481
C         -3.15872        0.55245        0.44178
O         -4.45093        0.08271        0.44283
C         -4.37234       -1.15088       -0.33516
N         -3.15965       -1.41551       -0.77156
C         -5.66162       -1.83167       -0.46418
N         -0.13030       -0.85562       -1.17104
C          1.33329       -0.68297       -1.39470
C          1.66311        0.72121       -1.93970
C          2.65516        1.53070       -1.12671
O          3.74450        1.87077       -1.52227
O          2.25926        1.94767        0.10498
C          2.18790       -1.09015       -0.20304
C          3.55999       -1.29348       -0.44176
C          4.40369       -1.69079        0.59521
C          3.88823       -1.89589        1.88101
C          2.52767       -1.69718        2.12025
C          1.67752       -1.29479        1.08218
C         -0.80034        3.11520        1.53042
H         -5.57270       -2.75245       -1.06843
H         -6.41552       -1.18535       -0.94860
H         -6.07068       -2.11712        0.52167
H         -0.53828       -1.72556       -1.53288
H          1.56617       -1.42050       -2.22488
H          2.07224        0.62376       -2.97049
H          0.73929        1.32990       -2.06899
H          1.35780        1.57109        0.39969
H          3.97654       -1.12111       -1.43500
H          5.46709       -1.83396        0.40492
H          4.54857       -2.20330        2.69038
H          2.12138       -1.85028        3.11930
H          0.62214       -1.14352        1.30073
H          0.12475        3.45885        1.03560
H         -1.51653        3.95568        1.53298
H         -0.54844        2.91456        2.58644
