34
omegapdb_2f7p_03.log	Energy:    -116.6055948
C         -0.95145        0.18873       -0.67601
N          0.40173        0.00306       -0.08223
C          1.46722       -0.15892       -1.12369
C          2.81731       -0.10525       -0.45086
C          3.57659        1.07303       -0.48898
C          4.82814        1.11669        0.13196
C          5.32386       -0.01044        0.79504
C          4.56421       -1.18410        0.83835
C          3.31286       -1.23374        0.21822
C         -1.58996       -1.21827       -0.93064
O         -1.04082       -2.25645       -0.11760
C         -3.09347       -1.10555       -0.53926
O         -3.44455       -2.02583        0.48881
C         -3.31272        0.32797        0.03762
O         -4.05247        0.30714        1.24423
C         -1.90156        0.88611        0.31308
S         -1.82818        2.67297        0.02339
H         -0.92692        0.73790       -1.65427
H          0.63788        0.78736        0.54138
H          1.31607       -1.14987       -1.61417
H          1.40198        0.60135       -1.93472
H          3.19661        1.95526       -1.00075
H          5.41751        2.03186        0.09942
H          6.29888        0.02581        1.27750
H          4.94766       -2.06166        1.35693
H          2.71914       -2.14601        0.25837
H         -1.44841       -1.56522       -1.97336
H         -0.31466       -1.89010        0.47169
H         -3.78089       -1.33032       -1.37904
H         -2.62061       -2.52383        0.79798
H         -3.91115        0.96711       -0.64807
H         -4.04178       -0.61568        1.64217
H         -1.62655        0.66487        1.37400
H         -2.76951        3.06582        0.91375
