44
omegacsd_CUHNEY10_05.log	Energy:     -27.5816038
Cl        -4.64690        2.87369        0.48853
C         -2.99377        2.47205        0.30968
C         -2.43677        1.45109        1.09804
N         -1.13593        1.09379        0.98627
C         -0.35278        1.76747        0.08098
N          1.01218        1.36626        0.04402
C          2.05069        1.99254       -0.74372
O          1.87650        2.90606       -1.49974
C          3.30579        1.26280       -0.34513
N          4.55756        1.51944       -0.74756
C          5.51684        0.70985       -0.20484
C          5.20856       -0.31173        0.71795
N          3.92591       -0.57084        1.12140
C          2.98816        0.21665        0.57927
C          1.48252        0.15886        0.80394
O          0.99978       -0.97663        0.05639
C          0.34929       -1.98595        0.79456
O          0.24755       -1.92846        1.99864
N          0.03184       -3.05494       -0.05561
C         -0.96870       -4.02832        0.48477
C         -2.25128       -4.08395       -0.37597
N         -2.62819       -2.80163       -1.03304
C         -1.51698       -2.29390       -1.89789
C         -0.10559       -2.79501       -1.51387
C         -3.06983       -1.78291       -0.03529
C         -0.85548        2.80439       -0.73993
C         -2.19684        3.15501       -0.61696
H         -3.03231        0.90244        1.84094
H          6.54785        0.90406       -0.52769
H          5.98738       -0.94939        1.15689
H          1.13182        0.13355        1.86778
H         -0.46827       -5.02297        0.50124
H         -1.21131       -3.77938        1.54413
H         -3.10459       -4.42912        0.24688
H         -2.13527       -4.84044       -1.18498
H         -1.52839       -1.18387       -1.92803
H         -1.75576       -2.63394       -2.93208
H          0.12416       -3.75299       -2.03364
H          0.66995       -2.06225       -1.83507
H         -3.92665       -2.18357        0.52996
H         -2.30056       -1.46469        0.68525
H         -3.43003       -0.89094       -0.57371
H         -0.20626        3.32366       -1.45383
H         -2.62161        3.95110       -1.23340
