24
omegapdb_1gs5_05.log	Energy:    -243.2141926
C          0.60602        0.20398       -0.16129
C          0.49501        1.70943        0.10405
O          0.94852        2.37176        1.00287
O         -0.26417        2.29513       -0.88104
C         -0.64482       -0.51292        0.38114
C         -1.85572       -0.27089       -0.51988
C         -3.12564       -0.67137        0.16524
O         -3.35357       -0.90561        1.32782
O         -4.14281       -0.74877       -0.76071
N          1.82481       -0.28558        0.50331
C          2.86264       -0.87174       -0.24868
O          2.73200       -1.02992       -1.44780
C          4.06450       -1.27293        0.55062
H          0.70016        0.03114       -1.27942
H         -0.35872        3.28032       -0.76415
H         -0.86767       -0.19610        1.42373
H         -0.43756       -1.60344        0.45146
H         -1.75407       -0.81507       -1.48707
H         -1.92758        0.80548       -0.82144
H         -5.01536       -1.00032       -0.35434
H          1.91899       -0.08435        1.49611
H          4.55981       -0.41263        1.02314
H          3.82534       -1.99820        1.34049
H          4.81127       -1.74993       -0.10787
