35
omegacsd_DIAVER_06.log	Energy:     -21.5615473
N          3.78034       -0.84377       -0.97178
C          4.02802       -0.69896        0.38761
N          3.27106        0.06457        1.25644
C          2.24855        0.79936        0.69955
C          1.94640        0.72904       -0.69717
C          2.74850       -0.11753       -1.47159
C          0.84362        1.53123       -1.31382
C         -0.52324        1.16616       -0.79057
C         -0.89704       -0.18564       -0.68382
C         -2.16272       -0.52568       -0.21075
C         -3.08094        0.49622        0.16328
C         -2.69950        1.83811        0.04955
C         -1.42538        2.16888       -0.42364
O         -4.35695        0.34425        0.65806
C         -4.89089       -0.99897        0.76309
O         -2.62786       -1.82033       -0.06108
C         -1.73812       -2.89750       -0.44550
N          1.57542        1.64846        1.57146
N          5.13547       -1.34717        0.90983
H          2.57135       -0.23681       -2.54926
H          1.05098        2.61419       -1.15857
H          0.84125        1.40302       -2.42020
H         -0.18115       -0.95279       -0.97154
H         -3.41128        2.61346        0.33259
H         -1.15183        3.21866       -0.51280
H         -5.89898       -0.81029        1.14869
H         -4.29095       -1.58657        1.46627
H         -4.91629       -1.47326       -0.22329
H         -1.50370       -2.83573       -1.51211
H         -0.83512       -2.88476        0.17204
H         -2.35222       -3.78019       -0.22722
H          1.75770        1.54630        2.56248
H          0.63550        1.93692        1.33567
H          5.59721       -2.04892        0.35200
H          5.24650       -1.39758        1.91045
