39
omegacsd_FIBREN_13.log	Energy:     -48.3296574
N         -2.72858        1.68573        1.04575
C         -1.37952        1.90513        0.88681
N         -0.50552        1.09732        0.19366
C         -0.96062       -0.05103       -0.43222
C         -2.34493       -0.36052       -0.30476
C         -3.15873        0.55238        0.44176
O         -4.45085        0.08237        0.44295
C         -4.37207       -1.15125       -0.33497
N         -3.15931       -1.41578       -0.77127
C         -5.66138       -1.83191       -0.46443
N         -0.13023       -0.85516       -1.17143
C          1.33343       -0.68265       -1.39487
C          1.66341        0.72162       -1.93954
C          2.65537        1.53081       -1.12620
O          3.74499        1.87054       -1.52123
O          2.25889        1.94819        0.10518
C          2.18789       -1.09007       -0.20320
C          1.67729       -1.29503        1.08188
C          2.52724       -1.69780        2.11996
C          3.88783       -1.89654        1.88087
C          4.40351       -1.69109        0.59522
C          3.56000       -1.29343       -0.44177
C         -0.80064        3.11550        1.53025
H         -6.09002       -2.08167        0.52275
H         -5.56494       -2.77303       -1.03524
H         -6.40339       -1.20009       -0.98508
H         -0.53803       -1.72538       -1.53279
H          1.56624       -1.42003       -2.22518
H          2.07272        0.62438       -2.97025
H          0.73960        1.33032       -2.06893
H          1.35739        1.57160        0.39966
H          0.62189       -1.14368        1.30031
H          2.12078       -1.85120        3.11890
H          4.54799       -2.20427        2.69026
H          5.46693       -1.83426        0.40504
H          3.97673       -1.12078       -1.43490
H         -1.51765        3.95526        1.53478
H          0.12325        3.46039        1.03409
H         -0.54662        2.91417        2.58565
