66
omegapdb_1z1r_28.log	Energy:    -257.2122203
C         -0.47781        0.34656       -0.74029
C         -0.85166       -1.08428       -0.28564
C          0.37969       -1.94274       -0.27069
C          0.89016       -2.46242       -1.47334
C          2.14196       -3.07112       -1.50442
C          2.87954       -3.14623       -0.31002
C          2.33983       -2.73782        0.91807
C          1.08115       -2.13935        0.92859
O          4.16222       -3.65030       -0.44288
C          5.19398       -2.97714        0.33443
C          5.57400       -1.63726       -0.30145
C          4.53526       -0.52249       -0.14212
C          4.22473       -0.20474        1.29494
O          4.64098       -0.81845        2.26551
N          3.34186        0.86037        1.59594
C          2.79682        1.88008        0.68632
C          1.83354        1.21752       -0.34148
O          2.15053        1.03156       -1.50760
N          0.56465        0.93274        0.14186
C          3.89567        2.66481       -0.04857
C          3.34058        3.92571       -0.69396
O          3.33539        5.00856       -0.13184
N          2.87196        3.78937       -1.99340
C         -1.75034        1.23679       -0.78238
O         -1.38884        2.31069       -1.67003
C         -2.18846        1.82514        0.57809
N         -3.66777        1.77541        0.68398
S         -4.34135        0.39697        1.48595
O         -3.21281       -0.43746        1.87254
O         -5.24100        0.94126        2.47755
C         -5.23606       -0.40173        0.24662
C         -6.47543        0.10287       -0.16034
C         -7.19760       -0.54850       -1.16491
C         -6.68152       -1.70726       -1.75525
C         -5.44646       -2.21880       -1.34005
C         -4.72531       -1.56671       -0.33669
H         -0.05754        0.31620       -1.79193
H         -1.61154       -1.50580       -0.97277
H         -1.34834       -1.06791        0.71409
H          0.32165       -2.35842       -2.39653
H          2.56935       -3.45549       -2.42733
H          2.90747       -2.86007        1.84052
H          0.65350       -1.80580        1.87380
H          4.87812       -2.87188        1.39002
H          6.01705       -3.71281        0.25994
H          5.75584       -1.79288       -1.38644
H          6.54020       -1.30864        0.13670
H          4.88594        0.39204       -0.67659
H          3.59333       -0.79644       -0.68116
H          3.21495        1.05280        2.59516
H          2.20749        2.61517        1.30926
H          0.38208        0.90052        1.14151
H          4.68695        2.96957        0.67323
H          4.40487        2.01542       -0.79854
H          2.69960        2.87617       -2.40756
H          2.42467        4.57373       -2.44469
H         -2.58388        0.66914       -1.26090
H         -2.17295        2.86271       -1.86716
H         -1.70323        1.27487        1.41985
H         -1.82249        2.87525        0.64736
H         -4.06931        2.69129        0.92102
H         -6.89056        0.99947        0.31045
H         -8.16324       -0.15649       -1.48310
H         -7.24550       -2.21649       -2.53877
H         -5.05097       -3.12731       -1.79377
H         -3.76620       -1.97684        0.00152
