25
omegapdb_1m5f_11.log	Energy:    -158.9944714
O         -2.18392       -2.50864        0.40320
C         -1.50890       -1.71452       -0.47512
O         -0.92258       -2.18410       -1.42569
C         -1.61132       -0.28336       -0.11284
N         -2.64020        0.29598        0.51873
O         -2.36113        1.63209        0.65807
C         -1.09375        1.88820        0.08491
C         -0.58741        0.71119       -0.41902
C          0.68202        0.45463       -1.13588
C          1.91326        0.55395       -0.21194
N          3.20320        0.64612       -0.94331
C          2.00981       -0.65895        0.73417
O          1.09464       -1.33654        1.12439
O          3.25683       -0.94857        1.21518
C         -0.65756        3.28362        0.16550
H         -2.07416       -3.48130        0.19147
H          0.78374        1.17078       -1.97969
H          0.64087       -0.55805       -1.61501
H          1.81091        1.46064        0.44820
H          3.33170        1.57060       -1.34553
H          3.24475       -0.02693       -1.70760
H          3.99379       -0.39420        0.82303
H         -0.21787        3.63048       -0.78350
H          0.09536        3.42891        0.95910
H         -1.49786        3.96190        0.40176
