45
omegacsd_SEYMIS_07.log	Energy:     -71.2427783
O          4.43821       -2.64973        0.22872
N          4.74450       -1.30959        0.00197
C          3.59783       -0.61910       -0.08233
C          2.47549       -1.52723        0.10386
C          1.02292       -1.28902        0.09305
O          0.22015       -2.15772       -0.21383
N          0.61874       -0.00946        0.50166
C         -0.73680        0.40229        0.54196
C         -1.15299        1.70511        0.92765
N         -2.53252        1.73875        0.84944
C         -3.35037        2.91048        1.17216
C         -3.00229        0.49075        0.42363
C         -1.88845       -0.35430        0.22799
C         -4.41607        0.17946        0.23130
O         -5.37251        0.91904        0.38155
O         -4.56812       -1.12884       -0.15104
C         -5.92873       -1.60125       -0.42060
C         -6.37044       -1.13337       -1.79108
C          3.04973       -2.77608        0.27834
C          2.51870       -4.11996        0.49220
C          3.55374        0.82419       -0.34847
C          2.78337        1.31298       -1.41660
C          2.74717        2.68550       -1.67130
C          3.47708        3.56946       -0.86866
C          4.24968        3.08064        0.18955
C          4.29435        1.70856        0.45123
H          1.31123        0.68874        0.77467
H         -0.55208        2.54045        1.23144
H         -3.22574        3.20129        2.23037
H         -3.08130        3.77012        0.53359
H         -4.43399        2.69758        1.00912
H         -1.91885       -1.38321       -0.10030
H         -5.77546       -2.69468       -0.35892
H         -6.59342       -1.24723        0.38715
H         -7.30890       -1.61034       -2.09579
H         -6.53022       -0.04480       -1.80651
H         -5.61469       -1.35979       -2.55513
H          2.54591       -4.41259        1.55607
H          3.07078       -4.89015       -0.07086
H          1.45249       -4.16842        0.17196
H          2.21952        0.62162       -2.04515
H          2.15180        3.06648       -2.50076
H          3.44810        4.63922       -1.07271
H          4.82509        3.76858        0.80817
H          4.90910        1.32258        1.26572
