45
omegacsd_SEYMIS_00.log	Energy:     -73.1005648
O          5.34072       -0.87016       -0.42955
N          4.93198        0.45399       -0.28130
C          3.60766        0.46994       -0.07256
C          3.10197       -0.89571       -0.08872
C          1.74414       -1.42779        0.09750
O          1.53729       -2.56791        0.49616
N          0.69520       -0.56712       -0.24726
C         -0.67124       -0.91895       -0.10965
C         -1.18485       -2.16030        0.34416
N         -2.56224       -2.07310        0.32088
C         -3.46896       -3.15378        0.71771
C         -2.93885       -0.80339       -0.13849
C         -1.76315       -0.07105       -0.41109
C         -4.32325       -0.36916       -0.28833
O         -5.33946       -0.99369       -0.04543
O         -4.36800        0.91364       -0.78176
C         -5.68939        1.51737       -0.96916
C         -6.23004        1.99204        0.36309
C          4.21901       -1.68851       -0.30012
C          4.44004       -3.12841       -0.40941
C          2.85032        1.70762        0.15243
C          2.06915        1.84599        1.31167
C          1.35022        3.02418        1.52353
C          1.41066        4.06307        0.58776
C          2.19611        3.92717       -0.56123
C          2.92097        2.75276       -0.78160
H          0.88295        0.37218       -0.60221
H         -0.62350       -3.03048        0.65786
H         -3.29803       -3.44571        1.76947
H         -4.53440       -2.83941        0.62315
H         -3.32526       -4.04350        0.07844
H         -1.73744        0.93713       -0.77760
H         -6.34947        0.77916       -1.45869
H         -5.43729        2.34301       -1.65957
H         -5.49396        2.60195        0.90260
H         -7.13788        2.59314        0.23755
H         -6.48371        1.14082        1.01330
H          5.35022       -3.45962        0.11692
H          4.53521       -3.45479       -1.45947
H          3.57805       -3.68439        0.02528
H          2.02751        1.03709        2.04252
H          0.74239        3.13380        2.42147
H          0.84771        4.98046        0.75713
H          2.24885        4.73974       -1.28520
H          3.54611        2.64953       -1.66961
