36
omegapdb_1qxw_29.log	Energy:    -108.1961228
C         -3.94950       -2.04605       -0.82025
C         -4.34049       -1.26451        0.41878
C         -2.86647       -1.55699        0.12934
N         -1.93816       -0.52414       -0.33383
C         -1.45987        0.33189        0.79228
C         -0.48674        1.39158        0.23386
C          0.74817        0.85401       -0.54351
N          1.38007        2.03909       -1.19016
C          1.67773        0.06705        0.39852
C          2.85878       -0.56627       -0.34379
C          3.72387       -1.40958        0.60464
C          4.91160       -2.03561       -0.12233
O         -1.29063        2.27436       -0.53430
O          0.01731        2.16940        1.32743
H         -4.16284       -3.11114       -0.87670
H         -4.06460       -1.58911       -1.80093
H         -4.72545       -0.25405        0.31140
H         -4.83755       -1.77146        1.24061
H         -2.34894       -2.29430        0.76216
H         -2.37414        0.07826       -1.04833
H         -0.92596       -0.29878        1.53726
H         -2.28172        0.84542        1.33849
H          0.36708        0.17272       -1.35393
H          2.09509        1.74668       -1.85007
H          1.83647        2.62160       -0.48786
H          2.03604        0.73218        1.21086
H          1.09066       -0.72613        0.90561
H          3.48394        0.21524       -0.81510
H          2.48773       -1.20092       -1.17274
H          4.08599       -0.78209        1.44265
H          3.10785       -2.20548        1.06780
H          5.56816       -1.27374       -0.55731
H          5.51945       -2.63961        0.56100
H          4.58624       -2.69239       -0.93733
H         -0.74776        2.78691       -1.19201
H         -0.60502        2.89244        1.55218
