36
omegapdb_1qxw_11.log	Energy:    -105.7526446
C         -3.86950       -2.03268       -0.15378
C         -4.85139       -0.99519        0.35395
C         -3.67408       -0.55640       -0.50356
N         -2.62419        0.26000        0.10849
C         -1.29021        0.01807       -0.52111
C         -0.29290        1.02710        0.08086
C          1.13439        0.99846       -0.56750
N          1.92612        2.21590       -0.26787
C          1.87847       -0.26951       -0.10760
C          3.20997       -0.44660       -0.84598
C          3.94594       -1.72619       -0.42575
C          4.53654       -1.63847        0.97991
O         -0.72756        2.37421       -0.01880
O         -0.24468        0.73276        1.48163
H         -4.17626       -2.73168       -0.92691
H         -3.19851       -2.51972        0.54873
H         -5.85543       -0.95161       -0.06307
H         -4.87703       -0.75448        1.41481
H         -3.86677       -0.23627       -1.53935
H         -2.54961        0.08254        1.12240
H         -1.36789        0.18171       -1.61861
H         -0.91029       -1.01659       -0.36974
H          0.99490        0.97469       -1.68225
H          2.17376        2.25972        0.71528
H          1.38371        3.05302       -0.48366
H          1.23685       -1.15743       -0.26724
H          2.05041       -0.22849        0.98757
H          3.85393        0.43991       -0.66883
H          3.03379       -0.46347       -1.93880
H          3.26319       -2.59558       -0.49062
H          4.75822       -1.92828       -1.15268
H          5.23464       -0.79809        1.06966
H          3.75660       -1.49487        1.73636
H          5.08336       -2.55145        1.23888
H         -1.71410        2.44764        0.04836
H         -0.00647        1.53027        1.99601
