36
omegapdb_1qxw_19.log	Energy:    -104.3942423
C          3.72918       -1.95389       -0.03403
C          4.45458       -0.64397        0.21308
C          2.92690       -0.68053        0.18399
N          2.16011       -0.14869       -0.94556
C          1.67067        1.23578       -0.69212
C          0.36006        1.20194        0.13336
C         -0.71584        0.17649       -0.34973
N         -0.51070       -1.04653        0.48582
C         -2.14606        0.71862       -0.17668
C         -3.18494       -0.01982       -1.02882
C         -3.72020       -1.31195       -0.39423
C         -4.63096       -1.05146        0.80274
O          0.70645        1.09169        1.50502
O         -0.18538        2.52784        0.02166
H          3.77229       -2.41190       -1.01911
H          3.72608       -2.72034        0.73734
H          5.00928       -0.17974       -0.59616
H          4.96598       -0.48324        1.15843
H          2.38371       -0.54267        1.13710
H          2.70949       -0.16919       -1.81141
H          2.40310        1.87673       -0.15179
H          1.45682        1.74198       -1.65918
H         -0.52672       -0.01545       -1.43876
H          0.27610       -1.58784        0.12500
H         -1.34099       -1.64295        0.45204
H         -2.14887        1.79745       -0.45548
H         -2.43536        0.69788        0.89228
H         -2.76129       -0.24936       -2.02620
H         -4.03475        0.66569       -1.22454
H         -2.87340       -1.96033       -0.08237
H         -4.27362       -1.89019       -1.16083
H         -5.50617       -0.45476        0.52149
H         -4.99646       -1.98828        1.23716
H         -4.10567       -0.50374        1.59492
H          0.17287        0.38620        1.96563
H         -0.04729        3.01711        0.86370
