36
omegapdb_1qxw_32.log	Energy:    -105.3130483
C          4.15434       -1.25947        0.43541
C          3.04154       -2.03843       -0.23656
C          2.77067       -0.63668        0.29945
N          2.64161        0.44792       -0.68842
C          1.26323        0.60578       -1.20474
C          0.24388        1.22058       -0.21418
C         -0.32903        0.26865        0.87451
N         -1.25668        1.07332        1.71550
C         -0.92471       -1.03211        0.30065
C         -2.21040       -0.85240       -0.51502
C         -3.47990       -1.15531        0.29275
C         -4.74018       -0.92971       -0.54005
O          0.90418        2.33712        0.36907
O         -0.86322        1.75845       -0.94382
H          4.51163       -1.55681        1.41707
H          4.97065       -0.87443       -0.17604
H          2.60298       -2.89734        0.26165
H          3.08681       -2.19106       -1.31468
H          2.14758       -0.53823        1.20606
H          2.95769        1.33621       -0.26956
H          1.32804        1.26415       -2.10344
H          0.87719       -0.37182       -1.57174
H          0.54904       -0.01709        1.53072
H         -1.67488        0.49194        2.43705
H         -2.02305        1.43208        1.14063
H         -0.15649       -1.52316       -0.33403
H         -1.09800       -1.74154        1.13373
H         -2.17650       -1.51310       -1.40322
H         -2.26099        0.17843       -0.93160
H         -3.45557       -2.20255        0.65359
H         -3.51877       -0.52439        1.20043
H         -5.64420       -1.14341        0.04076
H         -4.75979       -1.57445       -1.42627
H         -4.81196        0.10659       -0.89094
H          0.42530        2.66482        1.17289
H         -0.63557        2.63655       -1.31788
