39
omegacsd_FIBREN_15.log	Energy:     -49.1302532
N          3.67912        1.50125        0.56276
C          2.44551        2.11220        0.68650
N          1.22756        1.52148        0.46443
C          1.16662        0.19184        0.08195
C          2.38630       -0.51821       -0.07891
C          3.59640        0.20709        0.18338
O          4.66168       -0.64178       -0.01958
C          4.03371       -1.89842       -0.41329
N          2.71985       -1.83866       -0.45149
C          5.00144       -2.96384       -0.68332
N         -0.05188       -0.40409       -0.13261
C         -1.34102        0.31846        0.03831
C         -1.63305        1.17353       -1.21502
C         -2.80420        2.10536       -1.03187
O         -2.76521        3.30427       -0.94828
O         -4.05643        1.52941       -0.99499
C         -2.42670       -0.70952        0.29904
C         -3.10578       -0.68853        1.52509
C         -4.11518       -1.62144        1.78211
C         -4.44637       -2.58081        0.82065
C         -3.76589       -2.60715       -0.40158
C         -2.75931       -1.67472       -0.66410
C          2.43752        3.54632        1.08670
H          4.49680       -3.90102       -0.97785
H          5.62138       -3.18176        0.20459
H          5.69398       -2.68518       -1.49738
H         -0.07231       -1.38447       -0.41986
H         -1.23912        1.02144        0.91929
H         -0.72897        1.80035       -1.43092
H         -1.76843        0.54633       -2.11682
H         -4.07359        0.54258       -1.00470
H         -2.85217        0.05483        2.28255
H         -4.64327       -1.59928        2.73584
H         -5.23228       -3.30822        1.02325
H         -4.01982       -3.35793       -1.14982
H         -2.23293       -1.70587       -1.61760
H          1.66484        3.75212        1.84558
H          3.41295        3.86642        1.49020
H          2.21027        4.19175        0.22103
