34
omegapdb_2f7p_04.log	Energy:    -116.6055446
C         -0.95142        0.18839       -0.67584
N          0.40161        0.00246       -0.08190
C          1.46710       -0.16089       -1.12316
C          2.81730       -0.10616       -0.45066
C          3.31315       -1.23388        0.21953
C          4.56465       -1.18341        0.83927
C          5.32414       -0.00970        0.79452
C          4.82810        1.11667        0.13039
C          3.57639        1.07216       -0.49019
C         -1.59042       -1.21850       -0.93034
O         -1.04183       -2.25667       -0.11699
C         -3.09398       -1.10501       -0.53939
O         -3.44564       -2.02494        0.48875
C         -3.31276        0.32879        0.03709
O         -4.05327        0.30856        1.24317
C         -1.90146        0.88614        0.31314
S         -1.82645        2.67293        0.02372
H         -0.92684        0.73733       -1.65424
H          0.63819        0.78694        0.54125
H          1.40175        0.59824       -1.93528
H          1.31594       -1.15253       -1.61223
H          2.71956       -2.14617        0.26085
H          4.94832       -2.06037        1.35871
H          6.29930        0.02723        1.27667
H          5.41733        2.03189        0.09679
H          3.19612        1.95380       -1.00280
H         -1.44883       -1.56568       -1.97296
H         -0.31598       -1.89039        0.47278
H         -3.78139       -1.32960       -1.37921
H         -2.62162       -2.52289        0.79845
H         -3.91027        0.96814       -0.64921
H         -4.04318       -0.61426        1.64133
H         -1.62692        0.66450        1.37409
H         -2.76828        3.06651        0.91321
