50
omegapdb_1xom_08.log	Energy:    -144.2436675
O         -5.38618        2.93539       -0.06112
C         -5.04037        1.60321       -0.15504
O         -5.82042        0.81872       -0.63631
C         -3.64521        1.40721        0.40418
C         -3.66984        0.24624        1.41942
C         -2.32633       -0.48304        1.46112
C         -2.00351       -1.16530        0.09995
C         -2.56716       -0.34212       -1.09541
C         -2.67203        1.14722       -0.76332
C         -2.68949       -2.47413        0.07908
N         -3.24785       -3.48475        0.06887
C         -0.49055       -1.34254       -0.01783
C          0.12510       -2.58847        0.10676
C          1.51910       -2.71239        0.00492
C          2.30937       -1.58858       -0.22205
O          3.68743       -1.59991       -0.34783
C          4.36114       -2.87415       -0.20405
C          1.69414       -0.30741       -0.34072
C          0.30436       -0.20285       -0.23252
O          2.29815        0.89398       -0.59947
C          3.75470        1.03648       -0.47219
C          3.99710        2.45501       -1.01337
C          4.66561        3.25679        0.11655
C          5.05609        2.24853        1.21532
C          4.17008        1.01147        1.00600
H         -6.29147        3.12858       -0.42169
H         -3.33236        2.34965        0.92547
H         -4.47431       -0.47669        1.15746
H         -3.92589        0.63141        2.42469
H         -1.51699        0.22813        1.72261
H         -2.32439       -1.23688        2.27261
H         -1.93125       -0.49473       -1.98899
H         -3.57486       -0.71910       -1.37790
H         -2.97787        1.71592       -1.66337
H         -1.66562        1.54152       -0.49247
H         -0.45752       -3.49286        0.28332
H          1.96558       -3.69952        0.10046
H          4.19344       -3.28467        0.79554
H          4.03973       -3.56477       -0.98932
H          5.41107       -2.58522       -0.34154
H         -0.14983        0.78889       -0.32586
H          4.22991        0.24398       -1.08399
H          4.62376        2.42744       -1.91937
H          3.03416        2.91216       -1.31717
H          3.96604        4.01136        0.51774
H          5.54515        3.81055       -0.24947
H          6.12377        1.97953        1.13264
H          4.92002        2.67683        2.22154
H          4.68844        0.07334        1.26339
H          3.27049        1.05597        1.64854
