24
omegapdb_1gs5_00.log	Energy:    -240.5802667
C          0.41366        0.63824        0.00922
C          1.01500        2.03285       -0.18385
O          2.07582        2.45814        0.20659
O          0.15078        2.81125       -0.89626
C         -0.59322        0.67678        1.17811
C         -1.51209       -0.54465        1.19006
C         -2.49994       -0.48664        0.04197
O         -3.58677        0.03330        0.06703
O         -2.09858       -1.06248       -1.13110
N          1.54000       -0.28623        0.25874
C          1.50200       -1.61787       -0.16055
O          0.50330       -2.07849       -0.69962
C          2.74281       -2.41142        0.10538
H         -0.12255        0.33326       -0.94273
H          0.49216        3.73850       -1.04838
H         -0.05703        0.74632        2.14678
H         -1.20874        1.60308        1.10441
H         -0.92733       -1.48848        1.16182
H         -2.08177       -0.57584        2.14545
H         -1.20701       -1.54298       -1.09750
H          2.34354        0.10057        0.75933
H          2.62321       -3.44011       -0.28092
H          2.97085       -2.49898        1.17701
H          3.62899       -1.98927       -0.39170
