45
omegacsd_SEYMIS_03.log	Energy:     -71.5344120
O         -4.16682        2.69625        0.72065
N         -4.62693        1.39165        0.87195
C         -3.70235        0.55130        0.38073
C         -2.56959        1.33070       -0.10602
C         -1.35653        0.79761       -0.75336
O         -1.32121        0.32321       -1.87507
N         -0.21211        0.91352        0.05164
C          1.07627        0.48752       -0.35994
C          1.41737       -0.06870       -1.61883
N          2.77307       -0.32826       -1.60412
C          3.51873       -0.90957       -2.72373
C          3.30396        0.05012       -0.36362
C          2.25077        0.56163        0.42511
C          4.71142       -0.08683       -0.00333
O          5.61993       -0.53905       -0.67512
O          4.92523        0.39733        1.26541
C          6.28549        0.30388        1.80191
C          6.55248       -1.10848        2.27720
C         -2.90753        2.64826        0.11597
C         -2.27554        3.94263       -0.14114
C         -3.85302       -0.90747        0.36802
C         -4.40916       -1.56115        1.48101
C         -4.55677       -2.94992        1.46714
C         -4.15855       -3.68762        0.34719
C         -3.61253       -3.03543       -0.76328
C         -3.45844       -1.64726       -0.75842
H         -0.29228        1.23842        1.01466
H          0.75748       -0.26671       -2.45295
H          3.45750       -0.26224       -3.61709
H          4.59719       -1.03133       -2.46835
H          3.12263       -1.90739       -2.98544
H          2.35656        0.92727        1.42812
H          6.99635        0.63384        1.02341
H          6.22809        1.04007        2.62452
H          6.61959       -1.80648        1.42878
H          7.49459       -1.17431        2.83355
H          5.74936       -1.47239        2.93132
H         -2.27910        4.17934       -1.22247
H         -1.22063        3.96017        0.18229
H         -2.79417        4.77277        0.36940
H         -4.72892       -0.98349        2.34923
H         -4.98600       -3.45755        2.32960
H         -4.27567       -4.77034        0.33928
H         -3.30570       -3.60914       -1.63698
H         -3.03106       -1.13818       -1.62984
