34
omegapdb_2f7p_10.log	Energy:    -117.6492842
C         -0.58038       -0.44796       -0.05027
N          0.06692       -0.91189       -1.29776
C          1.40220       -1.53720       -1.09254
C          2.46092       -0.69812       -0.41319
C          3.30783       -1.29880        0.53103
C          4.31613       -0.55222        1.14647
C          4.48520        0.79858        0.82652
C          3.64077        1.39996       -0.11187
C          2.63345        0.65569       -0.73187
C         -0.46376        1.09357        0.21841
O         -0.16232        1.76163       -1.00042
C         -1.83775        1.54809        0.79886
O         -2.32035        2.57880       -0.06462
C         -2.76269        0.29387        0.79271
O         -4.02042        0.76500        0.29108
C         -2.09967       -0.70511       -0.16217
S         -2.52235       -2.39223        0.33644
H         -0.16034       -0.98689        0.83836
H          0.13915       -0.12078       -1.96162
H          1.24564       -2.49045       -0.53532
H          1.77693       -1.83838       -2.10188
H          3.18515       -2.34930        0.78693
H          4.97121       -1.02430        1.87656
H          5.27056        1.37908        1.30571
H          3.76593        2.45247       -0.36288
H          1.97084        1.14306       -1.45253
H          0.39010        1.32813        0.88786
H         -0.94392        2.32235       -1.29360
H         -1.75012        2.01130        1.80198
H         -3.23581        2.35527       -0.40201
H         -2.93422       -0.09993        1.81796
H         -4.56844        0.01983       -0.03773
H         -2.44494       -0.52790       -1.21094
H         -1.77735       -3.06028       -0.57650
