39
omegacsd_FIBREN_14.log	Energy:     -49.3981009
N          3.05866        0.31390        1.80936
C          1.79014        0.69083        2.20162
N          0.66426        0.66968        1.41314
C          0.75411        0.26561        0.09788
C          2.01633       -0.15164       -0.39362
C          3.12092       -0.09516        0.52346
O          4.24976       -0.53392       -0.13044
C          3.77164       -0.85421       -1.47161
N          2.48391       -0.63825       -1.63457
C          4.82919       -1.34821       -2.35502
N         -0.35200        0.36780       -0.74150
C         -1.72785        0.51960       -0.17267
C         -2.55775        1.39806       -1.12495
C         -2.34606        2.88181       -0.92602
O         -3.21542        3.69108       -0.72606
O         -1.06364        3.35804       -1.02136
C         -2.35347       -0.85013        0.02363
C         -2.81378       -1.60836       -1.06201
C         -3.36899       -2.87260       -0.84590
C         -3.46409       -3.38612        0.45174
C         -2.99911       -2.63376        1.53480
C         -2.44227       -1.36933        1.32306
C          1.62380        1.15952        3.60465
H          5.29645       -2.26614       -1.95550
H          5.63717       -0.60417       -2.47578
H          4.43755       -1.58236       -3.36128
H         -0.29254       -0.17202       -1.61468
H         -1.64930        1.04614        0.82609
H         -3.64233        1.18120       -0.96450
H         -2.37686        1.14372       -2.19019
H         -0.35975        2.66843       -1.13499
H         -2.74496       -1.21990       -2.07611
H         -3.72818       -3.45904       -1.69068
H         -3.89852       -4.37100        0.61789
H         -3.06894       -3.03298        2.54613
H         -2.07089       -0.78988        2.17027
H          0.89258        0.54075        4.14962
H          2.57488        1.13162        4.16402
H          1.24763        2.19657        3.63347
