40
omegapdb_2byh_13.log	Energy:     -90.3498810
O         -6.54407       -2.39410       -0.16789
C         -6.43787       -1.27154        0.28407
C         -7.60836       -0.59525        0.94346
C         -5.15056       -0.52531        0.20255
C         -4.06027       -1.16146       -0.42041
C         -2.82710       -0.52689       -0.53384
C         -2.67078        0.77150       -0.01690
C         -3.75728        1.42225        0.61255
C         -4.98253        0.76929        0.71543
N         -1.44104        1.49003       -0.09809
C         -0.23480        1.02178       -0.67688
O         -0.12446       -0.09391       -1.14681
C          0.85064        2.01311       -0.64918
C          0.78165        3.39975       -1.02154
N          2.01144        3.96291       -0.94224
N          2.86443        2.97731       -0.52998
C          2.19806        1.75835       -0.33894
C          2.87796        0.55206        0.08971
C          2.73860       -0.62194       -0.68693
C          3.42965       -1.77463       -0.34527
Cl         3.29026       -3.19186       -1.28295
C          4.26261       -1.78865        0.80290
O          4.90618       -2.95872        1.04663
C          4.38815       -0.66028        1.61721
C          3.67506        0.49179        1.25409
O          3.83605        1.54426        2.11199
H         -7.89222        0.32920        0.42602
H         -7.40246       -0.35040        1.99251
H         -8.49046       -1.25516        0.93298
H         -4.19561       -2.17434       -0.81933
H         -1.98780       -1.03807       -1.02021
H         -3.64701        2.42485        1.01653
H         -5.81353        1.28144        1.20293
H         -1.44052        2.42333        0.32275
H         -0.09221        3.94749       -1.34172
H          3.85906        3.15921       -0.45772
H          2.06397       -0.61476       -1.55801
H          5.46727       -2.92060        1.86933
H          4.99906       -0.65152        2.51592
H          3.16769        2.26521        1.97648
