34
omegapdb_2f7p_16.log	Energy:    -116.3758519
C         -0.59829        0.07135       -0.30801
N         -0.04957       -0.84660        0.74305
C          1.14622       -1.61210        0.27650
C          2.40430       -0.78166        0.18591
C          2.88303       -0.35922       -1.06188
C          4.04098        0.42051       -1.13980
C          4.72485        0.78153        0.02503
C          4.25003        0.35812        1.27100
C          3.09370       -0.42181        1.35349
C         -1.59071       -0.72549       -1.22375
O         -1.15838       -2.03064       -1.55246
C         -2.92189       -0.73347       -0.42666
O         -2.91103       -1.78340        0.54255
C         -2.95682        0.63571        0.31565
O         -3.42717        0.48975        1.64793
C         -1.49382        1.14180        0.35434
S         -1.32939        2.74017       -0.48587
H          0.21567        0.52456       -0.92571
H          0.20760       -0.29800        1.57668
H          1.28842       -2.45423        0.99370
H          0.91034       -2.08829       -0.70757
H          2.35823       -0.64150       -1.97364
H          4.41031        0.74693       -2.11099
H          5.62538        1.38970       -0.03714
H          4.78336        0.63599        2.17896
H          2.73356       -0.75328        2.32548
H         -1.69192       -0.23752       -2.21746
H         -1.32733       -2.65029       -0.79370
H         -3.82240       -0.94844       -1.03228
H         -2.03210       -1.79244        1.02931
H         -3.66134        1.36272       -0.14364
H         -3.47307       -0.47366        1.90542
H         -1.21137        1.33664        1.42093
H         -1.61288        2.36718       -1.75093
