24
omegapdb_1gs5_15.log	Energy:    -236.5258033
C          0.94176       -0.43216        0.39312
C          2.06327       -1.45843        0.22182
O          2.44646       -2.28242        1.01168
O          2.63297       -1.37152       -1.02666
C         -0.38456       -1.05269       -0.09213
C         -1.58336       -0.39779        0.59901
C         -2.83229       -0.53067       -0.22928
O         -2.96194       -1.04091       -1.31126
O         -3.97309        0.01311        0.33084
N          1.28953        0.80666       -0.33166
C          0.85370        2.05359        0.13993
O          0.17916        2.12377        1.15574
C          1.28583        3.22977       -0.68029
H          0.86854       -0.19289        1.49963
H          3.36531       -2.03391       -1.16369
H         -0.39714       -2.14655        0.09913
H         -0.47691       -0.95437       -1.19784
H         -1.37415        0.68651        0.79682
H         -1.73592       -0.84118        1.60577
H         -3.85458        0.45413        1.20045
H          1.74087        0.69356       -1.23918
H          0.97902        4.16760       -0.18463
H          0.82777        3.23426       -1.67963
H          2.37596        3.28028       -0.81103
