39
omegacsd_FIBREN_04.log	Energy:     -55.5421059
N         -3.65814        1.47287       -0.50543
C         -2.50018        2.22439       -0.47926
N         -1.22607        1.74450       -0.31791
C         -1.01599        0.37873       -0.18229
C         -2.15257       -0.47500       -0.18472
C         -3.43356        0.14762       -0.35429
O         -4.39915       -0.83280       -0.33527
C         -3.63712       -2.06475       -0.14731
N         -2.33988       -1.86848       -0.05986
C         -4.48127       -3.26034       -0.09621
N          0.26176       -0.11082       -0.08510
C          1.44729        0.78019       -0.03898
C          1.73541        1.25301        1.40533
C          1.84955        0.15839        2.41528
O          1.56220       -1.01559        2.35667
O          2.36590        0.66968        3.58493
C          2.64416        0.08395       -0.66272
C          3.35743        0.76313       -1.66323
C          4.46962        0.16549       -2.26101
C          4.87393       -1.11521       -1.86964
C          4.16221       -1.79514       -0.87719
C          3.05128       -1.19867       -0.27326
C         -2.65260        3.69979       -0.62887
H         -5.21410       -3.20350        0.72779
H         -5.05531       -3.39066       -1.03044
H         -3.87575       -4.17182        0.05556
H          0.39331       -1.09713        0.17332
H          1.20679        1.71258       -0.63824
H          2.65989        1.87568        1.41667
H          0.92205        1.95147        1.72601
H          2.44587       -0.01594        4.30239
H          3.04540        1.75692       -1.98250
H          5.01996        0.69711       -3.03602
H          5.73905       -1.58134       -2.33834
H          4.47144       -2.79400       -0.57101
H          2.50810       -1.74165        0.50607
H         -1.98803        4.09368       -1.41405
H         -2.39090        4.21900        0.30703
H         -3.68859        3.97931       -0.88658
