36
omegapdb_1qxw_23.log	Energy:    -106.6945848
C          4.00981       -1.93017       -0.26090
C          4.83953       -0.70861        0.08811
C          3.32376       -0.63732        0.17724
N          2.61776        0.22473       -0.77513
C          1.14915       -0.04058       -0.79997
C          0.47602        0.77276        0.32919
C         -1.05541        1.06241        0.15873
N         -1.33282        2.04440       -0.91579
C         -1.82045       -0.25356       -0.06677
C         -3.33203       -0.05771        0.10596
C         -4.09877       -1.36464       -0.13638
C         -5.60353       -1.17337        0.04067
O          1.05509        2.04551        0.54821
O          0.69512        0.01608        1.52515
H          3.95476       -2.26124       -1.29319
H          4.00778       -2.78721        0.40790
H          5.36874       -0.17651       -0.69888
H          5.42414       -0.69852        1.00554
H          2.83943       -0.61025        1.17204
H          3.00670        0.14055       -1.71985
H          0.73668        0.27401       -1.78079
H          0.89004       -1.11552       -0.66252
H         -1.40279        1.53141        1.12129
H         -0.78162        2.89024       -0.76871
H         -1.09408        1.67763       -1.83026
H         -1.61112       -0.66046       -1.07348
H         -1.45062       -1.00970        0.65791
H         -3.55191        0.32759        1.11983
H         -3.68630        0.72979       -0.59112
H         -3.88895       -1.74183       -1.15621
H         -3.73801       -2.14884        0.55760
H         -5.85131       -0.84020        1.05499
H         -6.14639       -2.10743       -0.14046
H         -5.99847       -0.42293       -0.65408
H          2.03859        2.03055        0.38942
H          0.61000        0.58703        2.31737
