34
omegapdb_2f7p_00.log	Energy:    -117.2213059
C          1.19381       -0.26235       -0.92993
N         -0.20322        0.14952       -0.62778
C         -1.22617       -0.83569       -1.09989
C         -2.55845       -0.49695       -0.47511
C         -3.47634        0.30806       -1.16380
C         -4.71060        0.61356       -0.58271
C         -5.03090        0.12216        0.68662
C         -4.11232       -0.67519        1.37750
C         -2.87779       -0.98488        0.80090
C          2.05920        1.03883       -1.00652
O          1.32115        2.22667       -1.28405
C          2.71621        1.22354        0.39498
O          2.15376        2.33110        1.09647
C          2.37415       -0.05036        1.22371
O          1.29930        0.20547        2.13342
C          1.82709       -1.08133        0.21940
S          3.19298       -2.04134       -0.49288
H          1.22736       -0.80401       -1.90652
H         -0.31039        0.32033        0.38852
H         -0.95300       -1.89138       -0.87263
H         -1.27951       -0.76244       -2.21123
H         -3.22705        0.70089       -2.14815
H         -5.42272        1.23802       -1.12014
H         -5.99227        0.36118        1.13738
H         -4.35839       -1.05496        2.36811
H         -2.16595       -1.60238        1.34600
H          2.81947        0.97991       -1.81347
H          0.33601        2.03411       -1.31565
H          3.80672        1.41107        0.33577
H          1.58840        2.87484        0.45842
H          3.22503       -0.41257        1.83388
H          1.22276        1.19532        2.29480
H          1.08504       -1.74819        0.71266
H          3.47230       -2.84723        0.55515
