50
omegapdb_1xom_00.log	Energy:    -145.1202182
O          5.27064       -2.67422       -0.30494
C          5.17202       -1.30952       -0.12452
O          6.17507       -0.65388        0.01021
C          3.71112       -0.91043       -0.13693
C          3.34378       -0.29095        1.22358
C          1.88121        0.16095        1.23200
C          1.55827        1.14038        0.06993
C          2.00803        0.54943       -1.29473
C          3.46878        0.09219       -1.27945
C          2.32361        2.38203        0.30222
N          2.94384        3.33893        0.48384
C          0.05583        1.41900        0.03121
C         -0.46387        2.70068        0.14903
C         -1.85587        2.92705        0.10519
C         -2.72119        1.85820       -0.05940
O         -4.09373        1.90402       -0.12480
C         -4.71416        3.20803       -0.00103
C         -2.19220        0.52637       -0.18403
C         -0.82269        0.31937       -0.13736
O         -3.16021       -0.42727       -0.34383
C         -2.76022       -1.82858       -0.52058
C         -2.35353       -2.44963        0.82615
C         -3.43881       -3.47961        1.18674
C         -4.26926       -3.72047       -0.08808
C         -4.07436       -2.48228       -0.97543
H          6.20956       -2.99893       -0.30597
H          3.08675       -1.82645       -0.30822
H          4.01473        0.56801        1.44133
H          3.51494       -1.02210        2.03762
H          1.21456       -0.72121        1.16466
H          1.63940        0.64357        2.20026
H          1.34926       -0.30038       -1.56083
H          1.85606        1.30403       -2.09256
H          4.14595        0.96618       -1.16504
H          3.72842       -0.36545       -2.25400
H          0.18238        3.56936        0.27857
H         -2.22580        3.94444        0.20165
H         -4.40429        3.85854       -0.82351
H         -5.77877        2.95094       -0.08274
H         -4.49148        3.64664        0.97555
H         -0.41412       -0.68381       -0.22768
H         -1.96112       -1.86821       -1.28302
H         -1.36188       -2.92571        0.76013
H         -2.27844       -1.66722        1.60414
H         -4.08265       -3.08857        1.99539
H         -2.99811       -4.41648        1.56337
H         -3.92566       -4.63069       -0.61036
H         -5.33378       -3.88135        0.14980
H         -4.05966       -2.73298       -2.04693
H         -4.90618       -1.75724       -0.83882
