50
omegapdb_1xom_22.log	Energy:    -134.5786823
O          6.84744        0.79488        0.27705
C          5.87755       -0.19227        0.19534
O          6.21077       -1.21428       -0.34070
C          4.52582        0.17594        0.79122
C          3.75661        1.06353       -0.21062
C          2.86988        0.22651       -1.13564
C          1.75019       -0.50763       -0.34870
C          2.23559       -0.87334        1.08479
C          3.74481       -1.10778        1.13764
C          1.45552       -1.75498       -1.08784
N          1.22781       -2.72917       -1.66354
C          0.45055        0.28551       -0.22469
C          0.37320        1.64871       -0.50493
C         -0.82991        2.35728       -0.35651
C         -1.97439        1.68894        0.07566
O         -3.22268        2.23585        0.23794
C         -3.35655        3.66484        0.03337
C         -1.90180        0.29645        0.38325
C         -0.70400       -0.38977        0.22753
O         -3.00089       -0.32619        0.93945
C         -3.76000       -1.20263        0.03340
C         -4.66225       -0.35869       -0.87855
C         -6.06505       -0.97463       -0.77072
C         -6.11374       -1.72255        0.57639
C         -4.65862       -1.99709        0.99367
H          6.57225        1.62753        0.71288
H          4.68840        0.75579        1.73300
H          4.45660        1.67281       -0.81550
H          3.13387        1.78681        0.35444
H          3.50389       -0.51744       -1.66761
H          2.43330        0.85342       -1.93617
H          1.69941       -1.77046        1.45192
H          1.95319       -0.05844        1.78207
H          4.04039       -1.46959        2.14093
H          4.02480       -1.92501        0.43430
H          1.24902        2.19705       -0.85213
H         -0.85289        3.41783       -0.58898
H         -2.72495        4.21328        0.73759
H         -4.42016        3.81870        0.26105
H         -3.13547        3.92360       -1.00557
H         -0.67182       -1.45277        0.47104
H         -3.04019       -1.83148       -0.52140
H         -4.29931       -0.33252       -1.91639
H         -4.66068        0.69295       -0.51760
H         -6.24816       -1.67141       -1.60749
H         -6.84912       -0.20262       -0.83011
H         -6.62082       -1.10620        1.33986
H         -6.69149       -2.65714        0.49447
H         -4.42041       -3.07211        0.95962
H         -4.47177       -1.66839        2.03620
