36
omegapdb_1qxw_24.log	Energy:    -103.3938298
C         -4.20005        0.64624       -0.38659
C         -4.41046       -0.77589        0.09419
C         -3.02989       -0.13917        0.19629
N         -2.01684       -0.64140       -0.75010
C         -0.97761        0.36213       -1.06147
C          0.03760        0.68137        0.05839
C          0.91198       -0.46396        0.64555
N          0.02186       -1.36749        1.43764
C          1.61213       -1.29695       -0.44430
C          2.73905       -0.54549       -1.16178
C          4.04110       -0.44929       -0.35340
C          4.04892        0.70240        0.64999
O         -0.55985        1.27604        1.21711
O          0.83817        1.71762       -0.51279
H         -4.62148        1.47490        0.17333
H         -4.22241        0.84486       -1.45741
H         -4.57820       -1.56094       -0.64271
H         -4.97816       -0.96538        1.00022
H         -2.65364        0.14396        1.19145
H         -1.58495       -1.49684       -0.36200
H         -0.41204       -0.00564       -1.95187
H         -1.45926        1.31106       -1.39241
H          1.70338        0.02483        1.28893
H          0.57487       -2.04331        1.95660
H         -0.51220       -0.82410        2.11762
H          2.01277       -2.22632        0.00959
H          0.86368       -1.64606       -1.18511
H          2.95122       -1.06361       -2.11889
H          2.39260        0.46939       -1.45373
H          4.22993       -1.40490        0.17400
H          4.89139       -0.32481       -1.05445
H          3.20357        0.62418        1.35210
H          3.98144        1.67373        0.14764
H          4.97022        0.70520        1.24337
H         -1.15390        2.01587        0.97564
H          1.50286        2.05863        0.11972
