50
omegapdb_1xom_03.log	Energy:    -144.6911008
O         -5.99562       -0.46719       -0.04167
C         -5.12013       -1.50980        0.15126
O         -5.54858       -2.63093        0.29191
C         -3.68012       -1.03792        0.15285
C         -3.32685       -0.41227       -1.20830
C         -1.87492        0.07202       -1.22115
C         -1.57255        1.06053       -0.06125
C         -2.00267        0.45845        1.30486
C         -3.45289       -0.03080        1.29425
C         -2.37135        2.28152       -0.29112
N         -3.01868        3.22081       -0.47053
C         -0.07783        1.37799       -0.02873
C          0.40819        2.67207       -0.15419
C          1.79409        2.93442       -0.11647
C          2.68719        1.88897        0.04966
O          4.05834        1.97029        0.10955
C          4.64453        3.28943       -0.02039
C          2.19319        0.54443        0.18216
C          0.82930        0.30208        0.14143
O          3.18595       -0.38308        0.34276
C          2.82301       -1.79372        0.52646
C          2.42754       -2.43045       -0.81624
C          3.53810       -3.43300       -1.17720
C          4.37924       -3.64726        0.09535
C          4.15534       -2.41122        0.97887
H         -6.94662       -0.76040       -0.04560
H         -3.03772       -1.94179        0.32310
H         -3.48486       -1.14663       -2.02182
H         -4.01920        0.43115       -1.42143
H         -1.64603        0.55827       -2.19065
H         -1.18801       -0.79436       -1.15365
H         -1.86415        1.21537        2.10284
H         -1.32386       -0.37655        1.56727
H         -3.70022       -0.49286        2.26967
H         -4.15087        0.82686        1.17850
H         -0.26066        3.52316       -0.28527
H          2.13734        3.96052       -0.21880
H          4.40763        3.71886       -0.99770
H          4.32052        3.93449        0.80092
H          5.71567        3.06013        0.05880
H          0.44707       -0.71086        0.23780
H          2.02808       -1.85081        1.29212
H          2.32873       -1.65348       -1.59698
H          1.44908       -2.93236       -0.74432
H          4.16844       -3.02838       -1.98977
H          3.12063       -4.38252       -1.54865
H          4.06136       -4.56414        0.62229
H          5.44670       -3.78129       -0.14591
H          4.96752       -1.66534        0.83661
H          4.15090       -2.65831        2.05132
