41
omegacsd_CEJTIU_06.log	Energy:     -40.1064595
C         -6.05776       -0.43415        0.24678
N         -4.99465        0.60575        0.34120
C         -5.41802        1.86769       -0.33079
C         -3.66295        0.16900        0.05275
C         -3.30045       -1.19340        0.14932
C         -1.97529       -1.59535        0.00935
C         -0.97712       -0.63907       -0.23409
C         -1.31883        0.72365       -0.33761
C         -2.64421        1.11903       -0.19809
N          0.41319       -0.97955       -0.38004
C          0.91926       -2.27926       -0.33074
O          0.26206       -3.30043       -0.27405
N          2.35962       -2.38757       -0.41875
C          3.38679       -1.62354        0.19167
O          4.53015       -1.89986       -0.11224
C          3.02240       -0.56570        1.20859
C          2.97821        0.81600        0.61656
C          3.98943        1.24604       -0.25648
C          3.94772        2.53609       -0.78900
C          2.90397        3.40468       -0.45083
C          1.90174        2.97957        0.42605
C          1.93466        1.68820        0.96064
H         -6.18126       -0.86023       -0.76088
H         -5.83230       -1.25363        0.95191
H         -7.02111       -0.00137        0.56307
H         -5.45211        1.79845       -1.42898
H         -4.72938        2.68413       -0.05128
H         -6.41776        2.15694        0.03278
H         -4.05459       -1.95495        0.34379
H         -1.72083       -2.65933        0.08379
H         -0.55301        1.47541       -0.52845
H         -2.88940        2.17787       -0.27165
H          1.04749       -0.19653       -0.57330
H          2.68190       -3.23190       -0.92618
H          3.80972       -0.58222        2.00558
H          2.08218       -0.81414        1.74600
H          4.81069        0.57164       -0.51450
H          4.73375        2.86690       -1.46778
H          2.87588        4.41055       -0.86619
H          1.09364        3.65720        0.69964
H          1.15427        1.37007        1.65163
