57
omegacsd_SPIRIL_15.log	Energy:     -31.3297829
C         -2.35019       -1.50658       -0.89719
C         -3.51946       -0.82797       -0.16060
C         -4.83616       -1.61901       -0.43555
O         -5.05296       -2.79827       -0.27393
N         -5.80303       -0.70904       -0.87719
C         -5.25462        0.65376       -1.08458
N         -3.78101        0.51681       -0.80004
C         -3.11732        1.66878       -0.24686
C         -1.72345        1.75880       -0.44725
C         -1.03187        2.88444       -0.00510
C         -1.71067        3.93082        0.63134
C         -3.09147        3.84360        0.82435
C         -3.79942        2.71862        0.39381
C         -3.30470       -0.79722        1.36753
C         -1.82425       -0.86157        1.76361
N         -1.16554       -2.11584        1.27059
C          0.31932       -1.98560        1.24331
C          0.89943       -0.95739        0.25260
C          2.38716       -0.84744        0.35523
C          3.14222       -0.11680       -0.48163
C          4.61395       -0.05350       -0.30788
C          5.39261       -1.20916       -0.48505
C          6.77973       -1.16043       -0.32835
C          7.35708        0.06637        0.01058
C          6.61371        1.23576        0.19657
C          5.22912        1.16337        0.03115
F          8.68222        0.12485        0.16410
C          2.58817        0.66936       -1.62768
C         -1.74770       -2.60903       -0.01264
H         -2.68876       -1.92634       -1.86311
H         -1.58145       -0.74857       -1.15966
H         -6.70667       -0.97065       -1.24424
H         -5.77823        1.38133       -0.41763
H         -5.36138        0.98729       -2.14478
H         -1.20258        0.94700       -0.96112
H          0.04458        2.95366       -0.16051
H         -1.16477        4.80775        0.97143
H         -3.62370        4.65634        1.31868
H         -4.87385        2.66182        0.56045
H         -3.82745       -1.66737        1.82795
H         -3.77090        0.10060        1.81482
H         -1.30327        0.06108        1.42288
H         -1.74085       -0.88586        2.87466
H          0.64661       -1.73943        2.27874
H          0.73385       -2.99527        1.02469
H          0.44100        0.03947        0.43753
H          0.60982       -1.23160       -0.78347
H          2.84862       -1.39890        1.17613
H          4.91042       -2.15061       -0.74967
H          7.38803       -2.05267       -0.46644
H          7.09548        2.17485        0.46281
H          4.61986        2.05637        0.17029
H          2.07485        0.01200       -2.34447
H          1.85852        1.41608       -1.28671
H          3.36731        1.20371       -2.18755
H         -2.55317       -3.33223        0.27487
H         -0.99840       -3.19286       -0.58396
