40
omegapdb_2byh_01.log	Energy:     -93.4229468
O         -6.11217        1.31941       -1.27715
C         -5.79748        0.45665       -0.48044
C         -6.81696       -0.13692        0.45140
C         -4.39747       -0.04390       -0.40093
C         -3.46768        0.45727       -1.33165
C         -2.14267        0.03728       -1.31586
C         -1.72522       -0.90531       -0.34739
C         -2.64730       -1.41334        0.58679
C         -3.97034       -0.98078        0.55201
N         -0.35508       -1.29251       -0.36218
C          0.26858       -2.22563        0.51257
O         -0.35286       -2.82095        1.36878
C          1.70378       -2.39054        0.25557
C          2.36041       -3.66863        0.22525
N          3.67962       -3.50496       -0.04441
N          3.88720       -2.16114       -0.16038
C          2.70859       -1.43215        0.01278
C          2.66130        0.01980       -0.02304
C          1.79018        0.72079        0.83198
C          1.71557        2.10882        0.78386
Cl         0.64871        2.95281        1.81796
C          2.52283        2.83907       -0.12032
O          2.49724        4.18807       -0.23059
C          3.42031        2.17457       -0.96754
C          3.48293        0.78012       -0.89352
O          4.36415        0.06598       -1.65890
H         -6.57263        0.05834        1.50300
H         -7.81153        0.29764        0.26468
H         -6.90853       -1.22253        0.32123
H         -3.80620        1.18930       -2.07394
H         -1.44238        0.43480       -2.04568
H         -2.32825       -2.14826        1.33470
H         -4.67357       -1.38392        1.28312
H          0.21993       -0.87791       -1.10346
H          1.90166       -4.63371        0.39016
H          4.80047       -1.79533       -0.40778
H          1.16380        0.16763        1.54369
H          1.84349        4.62967        0.38655
H          4.04130        2.75247       -1.64850
H          4.87517        0.64118       -2.29042
