35
omegacsd_DIAVER_03.log	Energy:     -17.7860986
N          3.48591       -0.72271       -1.54910
C          4.30948        0.14461       -0.84160
N          4.03972        0.64682        0.41678
C          2.87229        0.22067        1.01048
C          2.00400       -0.71962        0.37933
C          2.36116       -1.13227       -0.91358
C          0.75712       -1.24274        1.02086
C         -0.49138       -0.50654        0.59693
C         -1.66555       -1.25520        0.34600
C         -2.83202       -0.59798       -0.01719
C         -2.84767        0.83115       -0.13636
C         -1.69103        1.55541        0.11200
C         -0.51208        0.87893        0.48049
O         -4.07929        1.33278       -0.49984
C         -4.17455        2.76641       -0.67998
O         -4.05042       -1.17594       -0.29150
C         -4.12727       -2.62074       -0.22538
N          2.57288        0.82357        2.22844
N          5.52320        0.49000       -1.41915
H          1.72111       -1.82239       -1.48117
H          0.83163       -1.20500        2.12977
H          0.65987       -2.32782        0.79080
H         -1.64183       -2.33622        0.43664
H         -1.67448        2.63803        0.02537
H          0.38999        1.46188        0.66432
H         -5.22712        2.88029       -0.97112
H         -3.97036        3.28431        0.26097
H         -3.50896        3.09664       -1.48229
H         -3.45623       -3.07350       -0.96043
H         -5.17798       -2.79542       -0.49294
H         -3.91887       -2.96832        0.78995
H          3.29581        1.36048        2.68841
H          1.88922        0.39420        2.83067
H          5.65682        0.30038       -2.40190
H          6.04203        1.26132       -1.02701
