41
omegacsd_CEJTIU_10.log	Energy:     -37.5272653
C         -5.45521       -1.59882       -1.30055
N         -4.58272       -1.47127       -0.10020
C         -5.35084       -1.68334        1.15766
C         -3.64942       -0.39484       -0.10485
C         -3.10938        0.10070        1.10700
C         -2.09517        1.05180        1.09578
C         -1.61024        1.54058       -0.12851
C         -2.12827        1.05696       -1.34031
C         -3.14088        0.10322       -1.32933
N         -0.60443        2.57539       -0.15714
C          0.76533        2.38375       -0.28172
O          1.51941        3.32079       -0.48764
N          1.29830        1.03597       -0.26685
C          1.09469        0.08654        0.76226
O          0.43611        0.33650        1.74942
C          1.73775       -1.26616        0.51257
C          3.19596       -1.18408        0.16673
C          4.11132       -0.69954        1.11435
C          5.46905       -0.62441        0.79624
C          5.92086       -1.03269       -0.46363
C          5.00940       -1.51653       -1.40659
C          3.64812       -1.59193       -1.09627
H         -4.82958       -1.68278       -2.20691
H         -6.15200       -0.75650       -1.43336
H         -6.04099       -2.53019       -1.23045
H         -5.94940       -2.60507        1.07106
H         -4.64915       -1.83733        1.99715
H         -6.02531       -0.85108        1.41265
H         -3.46579       -0.27325        2.06505
H         -1.65496        1.40128        2.03463
H         -1.74007        1.42967       -2.28841
H         -3.52840       -0.26689       -2.27635
H         -0.93497        3.53965       -0.07269
H          2.08695        0.89672       -0.91544
H          1.60155       -1.88842        1.42993
H          1.15607       -1.79855       -0.27281
H          3.76298       -0.37924        2.09605
H          6.17758       -0.24468        1.53184
H          6.97966       -0.97225       -0.70858
H          5.35905       -1.83553       -2.38765
H          2.94611       -1.97187       -1.83576
