35
omegacsd_DIAVER_08.log	Energy:     -19.8747569
N          3.35277       -0.58421        1.56738
C          3.95851        0.43698        0.84498
N          3.58450        0.84181       -0.42273
C          2.54767        0.15058       -1.00644
C          1.91280       -0.94859       -0.35813
C          2.35232       -1.24923        0.94140
C          0.81085       -1.74560       -0.98375
C         -0.56295       -1.31568       -0.52822
C         -0.90747        0.04667       -0.50065
C         -2.18537        0.43650       -0.10311
C         -3.14588       -0.54442        0.26865
C         -2.79223       -1.89884        0.23732
C         -1.50629       -2.27961       -0.15810
O         -4.45032       -0.34232        0.66402
C         -4.90834        1.02341        0.82008
O         -2.62488        1.74886       -0.04498
C         -1.64554        2.78865       -0.28769
N          2.11641        0.65399       -2.23688
N          5.05625        1.06175        1.41611
H          1.88433       -2.05790        1.52097
H          0.85228       -1.68668       -2.09334
H          0.97002       -2.82494       -0.76080
H         -0.16339        0.78874       -0.78447
H         -3.53335       -2.64298        0.52742
H         -1.25083       -3.33709       -0.17169
H         -4.30415        1.54055        1.57211
H         -5.94016        0.87767        1.15791
H         -4.86640        1.54444       -0.14275
H         -1.27456        2.72822       -1.31491
H         -2.24269        3.69603       -0.13606
H         -0.83192        2.72531        0.44126
H          2.72481        1.31179       -2.70969
H          1.60376        0.03430       -2.84709
H          5.23832        0.91464        2.39806
H          5.39753        1.91721        1.00551
