40
omegapdb_2byh_18.log	Energy:     -89.2840248
O         -6.02186        0.48423       -2.44364
C         -6.11073       -0.01702       -1.34059
C         -7.45395       -0.33725       -0.74629
C         -4.89478       -0.32912       -0.53680
C         -4.94416       -0.97224        0.70881
C         -3.77633       -1.23966        1.41794
C         -2.52726       -0.85635        0.87915
C         -2.46581       -0.22307       -0.37704
C         -3.64457        0.03737       -1.06923
N         -1.35971       -1.17904        1.62328
C         -0.07198       -0.56900        1.59438
O          0.82220       -1.23264        2.09709
C          0.08430        0.77065        1.04706
C         -0.86991        1.84209        1.17476
N         -0.36195        2.98249        0.65463
N          0.88526        2.67286        0.19065
C          1.22118        1.33497        0.42062
C          2.50115        0.77411        0.01746
C          2.66521       -0.62272       -0.11596
C          3.88579       -1.17062       -0.49102
Cl         4.07005       -2.85697       -0.66512
C          4.99937       -0.33066       -0.72549
O          6.15007       -0.95946       -1.07647
C          4.88582        1.05879       -0.60206
C          3.63691        1.57997       -0.23745
O          3.46125        2.93644       -0.12820
H         -8.26157       -0.02716       -1.42854
H         -7.61759        0.18426        0.20479
H         -7.57820       -1.41301       -0.57097
H         -5.90230       -1.27035        1.13804
H         -3.83120       -1.73430        2.38519
H         -1.50724        0.05333       -0.81498
H         -3.61093        0.53001       -2.04867
H         -1.42256       -2.00915        2.23008
H         -1.85427        1.78304        1.61741
H          1.47215        3.39564       -0.22037
H          1.82134       -1.29564        0.08903
H          6.90414       -0.32605       -1.21993
H          5.73328        1.70934       -0.78046
H          4.30416        3.44439       -0.25328
