45
omegacsd_FABSOQ10_02.log	Energy:     -98.3779999
S         -0.05854        0.61833       -0.07735
C          1.00909        1.72236       -0.90899
C          0.62107        3.00937       -0.69118
C         -0.54434        3.12044        0.15661
C         -1.03555        1.91671        0.56050
C         -2.19312        1.61766        1.45698
O         -2.99992        2.79622        1.62166
C         -3.04003        0.46594        0.96642
C         -3.45091       -0.52492        1.87811
C         -4.25129       -1.58100        1.46321
C         -4.64955       -1.63743        0.10987
O         -5.43690       -2.73054       -0.16479
C         -5.90799       -2.90501       -1.52350
C         -4.25899       -0.65997       -0.81431
C         -3.45076        0.39000       -0.36990
C          2.12529        1.19934       -1.75036
O          1.58304        0.50410       -2.88481
C          3.09685        0.31980       -0.99147
C          3.43201        0.59112        0.33885
C          4.35915       -0.20428        1.02045
C          4.94578       -1.27727        0.33934
O          5.86806       -2.15314        0.86549
C          6.27300       -1.96522        2.24302
C          4.63127       -1.56427       -1.00676
C          3.71097       -0.75654       -1.66013
H          1.10925        3.88500       -1.09833
H         -0.96610        4.07909        0.43475
H         -1.82903        1.45612        2.50727
H         -3.52413        2.97764        0.81390
H         -3.14051       -0.46457        2.92270
H         -4.57776       -2.35836        2.15039
H         -6.54758       -2.06698       -1.81448
H         -5.06260       -3.03219       -2.20566
H         -6.48929       -3.83304       -1.44052
H         -4.56500       -0.70471       -1.85368
H         -3.13416        1.15440       -1.08259
H          2.68093        2.03663       -2.25267
H          1.02565       -0.25373       -2.60531
H          2.97005        1.43124        0.86123
H          4.60496        0.01803        2.05264
H          6.76189       -0.99475        2.36636
H          5.41422       -2.07897        2.91065
H          6.98891       -2.78642        2.37976
H          5.11381       -2.40272       -1.50323
H          3.45729       -0.94923       -2.70658
