36
omegapdb_1qxw_13.log	Energy:    -106.5776539
C          4.95676       -0.99162        0.20918
C          3.98006       -2.00332       -0.35799
C          3.71758       -0.50563       -0.52736
N          2.68130        0.19692        0.23014
C          1.32647        0.01538       -0.37315
C          0.35802        0.96711        0.34672
C         -1.08754        1.05480       -0.23352
N         -0.94907        1.34097       -1.69227
C         -1.84680       -0.26415       -0.00941
C         -3.36617       -0.07305       -0.07570
C         -4.10381       -1.39806        0.16662
C         -5.61893       -1.21915        0.10765
O          0.80078        2.31578        0.40442
O          0.30726        0.51962        1.70951
H          5.03637       -0.86915        1.28723
H          5.93241       -0.86428       -0.25457
H          3.36662       -2.59013        0.32001
H          4.26243       -2.59947       -1.22102
H          3.83802       -0.06675       -1.53017
H          2.65423       -0.11344        1.21297
H          0.94266       -1.02522       -0.30748
H          1.35300        0.27756       -1.45793
H         -1.60575        1.88441        0.31838
H         -0.59707        2.28711       -1.82954
H         -1.84913        1.27546       -2.15741
H         -1.56046       -0.67914        0.98194
H         -1.52284       -1.01739       -0.75548
H         -3.65871        0.33952       -1.05999
H         -3.68885        0.67483        0.67456
H         -3.78628       -2.14856       -0.58383
H         -3.81456       -1.81500        1.15155
H         -5.97249       -0.51014        0.86493
H         -6.13608       -2.16944        0.28313
H         -5.94492       -0.84520       -0.86949
H          1.79069        2.37376        0.42786
H          0.07690        1.25842        2.30955
