46
omegacsd_CDBMPI10_11.log	Energy:     -38.4005736
O         -2.37014        2.52445        0.47114
C         -2.40164        1.31804        0.27944
N         -1.20867        0.60128        0.14284
C         -1.12615       -0.86792       -0.09752
C         -0.11937       -1.15646       -1.24728
N          1.18419       -0.45216       -1.05848
C          0.96721        1.02667       -0.97127
C          0.08325        1.32728        0.26858
C          2.22755        1.87867       -0.96349
C          2.21145       -1.21757       -0.47525
O          2.07956       -2.43297       -0.41060
C          3.48541       -0.56556       -0.03162
C          4.54934       -0.43219       -0.93220
C          5.76079        0.10891       -0.49129
C          5.90873        0.50485        0.84209
C          4.84722        0.35495        1.74115
C          3.63263       -0.18497        1.30857
C         -0.74546       -1.60731        1.18668
C         -3.68032        0.54119        0.17320
C         -4.36685        0.50702       -1.04678
C         -5.58205       -0.17839       -1.13416
C         -6.10822       -0.81986       -0.00767
C         -5.42238       -0.77490        1.21080
C         -4.20581       -0.09269        1.30565
H         -2.13532       -1.23111       -0.43676
H         -0.54742       -0.83787       -2.22211
H          0.06078       -2.25795       -1.31817
H          0.38335        1.29313       -1.90121
H         -0.11475        2.42429        0.34936
H          0.59442        1.02362        1.20646
H          2.94232        1.55322       -1.73129
H          2.75618        1.87100       -0.00238
H          1.98190        2.92734       -1.18049
H          4.43414       -0.75574       -1.96676
H          6.59218        0.21518       -1.18688
H          6.85448        0.92426        1.18303
H          4.96874        0.65257        2.78177
H          2.81054       -0.31701        2.01050
H         -1.45751       -1.40669        1.99450
H          0.25132       -1.32740        1.54822
H         -0.71944       -2.69306        1.02343
H         -3.96123        1.02072       -1.91816
H         -6.12193       -0.20725       -2.07964
H         -7.05654       -1.35145       -0.07832
H         -5.83792       -1.26783        2.08862
H         -3.67418       -0.04628        2.25575
