41
omegacsd_CEJTIU_13.log	Energy:     -45.1474991
C          6.62646       -1.64921       -0.16814
N          6.12255       -0.25118       -0.05361
C          6.86588        0.66087       -0.96983
C          4.69805       -0.09953       -0.05563
C          3.84883       -1.16373        0.32050
C          2.47613       -0.97374        0.45423
C          1.91763        0.29021        0.20796
C          2.74914        1.36400       -0.16811
C          4.11911        1.16852       -0.29919
N          0.51093        0.56364        0.32034
C         -0.44297       -0.38868        0.65251
O         -0.25547       -1.56984        0.88942
N         -1.82239        0.06633        0.73505
C         -2.31652        1.36330        0.50134
O         -1.56821        2.27599        0.19055
C         -3.80541        1.55659        0.70028
C         -4.64420        0.47907        0.07509
C         -5.32971       -0.44070        0.88141
C         -6.10985       -1.43872        0.28973
C         -6.20662       -1.52415       -1.10238
C         -5.52175       -0.60633       -1.90617
C         -4.74181        0.39467       -1.32230
H          7.72524       -1.64943       -0.08140
H          6.35020       -2.15089       -1.10825
H          6.24153       -2.24671        0.67710
H          6.63233        0.51179       -2.03511
H          7.94934        0.51962       -0.82531
H          6.64353        1.70953       -0.70484
H          4.25703       -2.15253        0.52443
H          1.83867       -1.81527        0.74979
H          2.32799        2.35097       -0.35755
H          4.74708        2.01345       -0.57901
H          0.21162        1.54343        0.13716
H         -2.48425       -0.69548        0.95707
H         -4.01180        1.65619        1.79001
H         -4.08670        2.55184        0.27642
H         -5.26358       -0.38029        1.96605
H         -6.64281       -2.15233        0.91741
H         -6.81306       -2.30375       -1.56050
H         -5.59535       -0.67215       -2.99141
H         -4.20954        1.10667       -1.95199
