61
omegapdb_1v2k_10.log	Energy:     -54.7792361
N         -4.39212        4.47372        1.07924
C         -5.06026        3.58895        1.86865
C         -5.67755        2.43586        1.37782
C         -5.62871        2.16190       -0.01039
C         -4.93344        3.07990       -0.83491
C         -4.34753        4.20803       -0.25454
N         -6.35355        1.08017       -0.57305
C         -6.72546       -0.06421        0.31511
C         -5.75370       -1.25663        0.22369
C         -4.42330       -0.86124       -0.43666
C         -4.64478       -0.28322       -1.84739
C         -5.91988        0.58215       -1.91043
C         -3.52879       -2.09879       -0.54299
O         -3.96513       -3.21999       -0.76592
N         -2.15404       -1.92564       -0.37968
C         -1.48214       -0.61779       -0.18052
C         -0.19305       -0.78612        0.64513
N          0.78368       -1.69481       -0.02778
C          0.14489       -2.69432       -0.92937
C         -1.25907       -3.11449       -0.46644
S          2.03177       -2.29803        1.01965
O          1.53435       -2.24816        2.38087
O          2.47045       -3.55499        0.44363
C          3.27788       -1.11032        0.83402
C          4.10347       -1.12763       -0.26356
C          5.12845       -0.14273       -0.41100
C          5.28226        0.85057        0.59471
C          4.41385        0.83514        1.73176
C          3.43879       -0.12349        1.84743
C          6.30508        1.84098        0.44812
C          7.11289        1.80408       -0.65908
C          6.97779        0.81537       -1.67590
C          6.00113       -0.13859       -1.54769
Cl         8.35006        2.98887       -0.85442
H         -5.08762        3.83040        2.93826
H         -6.20205        1.76749        2.05743
H         -4.87010        2.92872       -1.90852
H         -3.81075        4.94144       -0.86843
H         -6.81824        0.28232        1.36914
H         -7.74771       -0.38360        0.00605
H         -6.21266       -2.08770       -0.35457
H         -5.56733       -1.67580        1.23075
H         -3.93403       -0.08033        0.20441
H         -3.76126        0.30932       -2.14772
H         -4.72979       -1.10509       -2.58792
H         -6.76576       -0.01319       -2.32539
H         -5.77759        1.44194       -2.60132
H         -1.24393       -0.16889       -1.17327
H         -2.17143        0.08688        0.34473
H         -0.45262       -1.14705        1.67230
H          0.30027        0.20744        0.75658
H          0.09233       -2.22991       -1.94279
H          0.79218       -3.60017       -1.03557
H         -1.70455       -3.85833       -1.17091
H         -1.22198       -3.61236        0.53012
H          3.99888       -1.89558       -1.03889
H          4.54596        1.59375        2.50336
H          2.78142       -0.15113        2.72506
H          6.42536        2.60472        1.21700
H          7.65131        0.83386       -2.53354
H          5.87423       -0.91053       -2.30885
