36
omegapdb_1qxw_08.log	Energy:    -107.5910765
C          4.20950        1.12571        0.42079
C          3.90238        1.78646       -0.90886
C          2.76101        1.42926        0.03112
N          1.82052        0.38152       -0.36983
C          1.26215       -0.33920        0.81282
C          0.29021       -1.43126        0.31848
C         -0.89195       -0.95342       -0.57145
N         -1.52451       -2.18757       -1.11849
C         -1.84228       -0.04878        0.23381
C         -2.97796        0.51799       -0.62434
C         -3.85717        1.50543        0.15865
C         -3.17887        2.85507        0.38096
O          1.10763       -2.40531       -0.31340
O         -0.28498       -2.08090        1.45951
H          4.68516        1.69995        1.21036
H          4.56459        0.09882        0.43553
H          4.15396        2.83342       -1.06267
H          4.04684        1.22775       -1.83124
H          2.24032        2.24248        0.55973
H          2.26860       -0.30399       -0.99667
H          2.04082       -0.80903        1.45348
H          0.70826        0.37906        1.45716
H         -0.45486       -0.37243       -1.43022
H         -2.02675       -2.68186       -0.38075
H         -2.20120       -1.95260       -1.83878
H         -1.26063        0.78883        0.67212
H         -2.24880       -0.60855        1.10064
H         -3.61372       -0.30377       -1.00544
H         -2.55965        1.02078       -1.51883
H         -4.80772        1.65776       -0.39061
H         -4.14227        1.06451        1.13423
H         -3.82605        3.53703        0.94327
H         -2.93043        3.34303       -0.56857
H         -2.24407        2.74851        0.94387
H          0.58352       -2.97406       -0.93915
H          0.30868       -2.78713        1.79010
