24
omegapdb_1gs5_21.log	Energy:    -229.0041390
C          0.21994        0.18413       -0.38550
C          0.63215        1.64368       -0.08647
O          1.72836        2.07475        0.15401
O         -0.41031        2.53151       -0.08235
C         -0.45440       -0.40147        0.87789
C         -1.67080       -1.26550        0.53772
C         -2.79349       -0.43746       -0.03404
O         -2.72573        0.69351       -0.45693
O         -4.02606       -1.03597       -0.10238
N          1.33245       -0.63027       -0.87725
C          2.54189       -0.96552       -0.22101
O          3.31525       -1.65128       -0.86631
C          2.78215       -0.49995        1.17514
H         -0.54196        0.23756       -1.22148
H         -1.31564        2.14589       -0.28487
H          0.28069       -1.00751        1.45553
H         -0.76061        0.41553        1.56728
H         -1.38107       -2.05992       -0.18877
H         -2.00405       -1.80856        1.44810
H         -4.07644       -1.96050        0.23494
H          1.27482       -0.90391       -1.86264
H          1.97275       -0.76063        1.86839
H          2.91149        0.60181        1.20669
H          3.71620       -0.93558        1.56688
