57
omegacsd_SPIRIL_08.log	Energy:     -35.4096023
C          1.85200       -0.15858        0.65911
C          2.34039        0.71564       -0.50281
C          2.05225        2.21134       -0.13498
O          1.02589        2.68990        0.29804
N          3.21219        2.94254       -0.38645
C          4.28444        2.09855       -0.98202
N          3.82603        0.67392       -0.80214
C          4.66399       -0.08333        0.11647
C          5.05720        0.39217        1.37993
C          5.90335       -0.38517        2.17346
C          6.35571       -1.62794        1.71754
C          5.96195       -2.09618        0.45980
C          5.11845       -1.32926       -0.34738
C          1.58430        0.40558       -1.81057
C          1.52189       -1.10550       -2.09001
N          0.99210       -1.93222       -0.97144
C         -0.49241       -1.92371       -0.84013
C         -1.15799       -0.59527       -0.43861
C         -2.64346       -0.70638       -0.32548
C         -3.42842        0.28047        0.13902
C         -4.89834        0.09748        0.22075
C         -5.64528       -0.13343       -0.94639
C         -7.03019       -0.30427       -0.88094
C         -7.63813       -0.24016        0.37562
C         -6.92776       -0.01256        1.55804
C         -5.54506        0.15882        1.46698
F         -8.96158       -0.40379        0.45089
C         -2.91238        1.60212        0.60970
C          1.72654       -1.64759        0.29087
H          2.50103       -0.04825        1.54787
H          0.84871        0.22082        0.97769
H          3.31132        3.93790       -0.26323
H          5.27143        2.30715       -0.51517
H          4.36204        2.28063       -2.08220
H          4.70342        1.35581        1.74178
H          6.21021       -0.02146        3.15357
H          7.01403       -2.22997        2.34098
H          6.31582       -3.06368        0.10428
H          4.81276       -1.68581       -1.33172
H          2.06362        0.91927       -2.66530
H          0.54976        0.81416       -1.73604
H          0.91546       -1.29484       -3.00056
H          2.54982       -1.48110       -2.30606
H         -0.90753       -2.27146       -1.81294
H         -0.75448       -2.71025       -0.09604
H         -0.89677        0.19841       -1.17926
H         -0.72567       -0.23216        0.52379
H         -3.07659       -1.65430       -0.64637
H         -5.13994       -0.17554       -1.91150
H         -7.61317       -0.48115       -1.78278
H         -7.43285        0.03047        2.52114
H         -4.96079        0.33864        2.36964
H         -3.70544        2.35458        0.70611
H         -2.42368        1.51107        1.59050
H         -2.15961        2.01720       -0.07786
H          2.74228       -2.09235        0.17276
H          1.24163       -2.19568        1.12690
