44
omegacsd_CUHNEY10_16.log	Energy:     -22.2822977
Cl        -1.62511       -5.40361        0.20660
C         -0.63034       -4.01921        0.05241
C          0.14687       -3.59489        1.14503
N          0.94488       -2.50479        1.06843
C          1.00259       -1.82699       -0.11949
N          1.90591       -0.72035       -0.18311
C          3.06494       -0.55348        0.67847
O          3.57986       -1.40549        1.33347
C          3.50061        0.87371        0.41790
N          4.55081        1.51151        0.94892
C          4.72691        2.79914        0.51960
C          3.87082        3.40431       -0.42288
N          2.79578        2.74777       -0.96103
C          2.62141        1.49302       -0.52578
C          1.52280        0.52139       -0.92496
O          0.30049        1.02503       -0.34321
C         -0.84727        0.97447       -1.15824
O         -0.82133        0.44829       -2.25412
N         -1.87725        1.67090       -0.55510
C         -1.77110        2.06377        0.88276
C         -2.97052        2.93976        1.27342
N         -4.28427        2.22455        1.12329
C         -4.22796        1.16441        0.07200
C         -3.25984        1.47158       -1.08372
C         -5.37460        3.20819        0.85346
C          0.22968       -2.18939       -1.24776
C         -0.59460       -3.30821       -1.15202
H          0.13278       -4.12506        2.10737
H          5.58181        3.33535        0.95131
H          4.02774        4.43339       -0.77028
H          1.40641        0.34771       -2.02381
H         -1.71297        1.16061        1.53354
H         -0.81516        2.62390        1.01748
H         -2.88940        3.20642        2.35321
H         -2.93231        3.89311        0.70068
H         -5.24202        0.95925       -0.33081
H         -3.91604        0.22961        0.59652
H         -3.54857        2.41223       -1.60745
H         -3.27413        0.66118       -1.84788
H         -5.28767        3.75399       -0.09707
H         -5.40728        3.94283        1.67504
H         -6.34190        2.67905        0.86519
H          0.26112       -1.60648       -2.17210
H         -1.20124       -3.62506       -2.00328
