61
omegapdb_1v2k_15.log	Energy:     -57.3951104
N          0.12451        3.74920        0.21528
C         -0.38987        3.47146       -1.01770
C         -1.71129        3.08019       -1.22819
C         -2.58825        2.96731       -0.11930
C         -2.06379        3.27934        1.15846
C         -0.72529        3.66445        1.27367
N         -3.96285        2.66761       -0.30520
C         -4.73531        2.17715        0.87839
C         -4.73212        0.63949        1.02486
C         -3.71438       -0.00631        0.07507
C         -3.97604        0.38174       -1.39082
C         -4.32891        1.87457       -1.52111
C         -3.73577       -1.52662        0.21093
O         -4.48942       -2.25206       -0.41685
N         -2.89404       -2.12002        1.19061
C         -2.61429       -3.57293        1.05693
C         -1.28354       -3.85326        0.31322
N         -0.27037       -2.76784        0.46477
C         -0.43731       -2.03895        1.74559
C         -1.82051       -1.35831        1.88176
S         -0.04364       -1.76939       -0.94099
O          0.10779       -2.68510       -2.05056
O         -1.09980       -0.76587       -0.99414
C          1.44459       -0.95975       -0.59388
C          2.64677       -1.62254       -0.62781
C          3.86180       -0.92382       -0.34773
C          3.80848        0.46452       -0.04239
C          2.54239        1.12990       -0.02674
C          1.39273        0.43352       -0.29822
C          5.02440        1.16509        0.23993
C          6.21059        0.47896        0.20646
C          6.28615       -0.91040       -0.10039
C          5.12869       -1.59337       -0.37235
Cl         7.68635        1.30431        0.54509
H          0.30971        3.56678       -1.85688
H         -2.05948        2.85663       -2.23461
H         -2.69504        3.23426        2.04245
H         -0.29592        3.91311        2.25130
H         -4.35588        2.65859        1.80651
H         -5.77924        2.54313        0.74633
H         -4.51536        0.35535        2.07062
H         -5.74334        0.23973        0.80591
H         -2.67566        0.36269        0.33103
H         -4.78702       -0.24355       -1.81606
H         -3.06293        0.13778       -1.97908
H         -5.42408        2.00271       -1.67340
H         -3.83684        2.31804       -2.41420
H         -3.46344       -4.05652        0.51344
H         -2.59067       -4.01380        2.07675
H         -1.47553       -4.05309       -0.76749
H         -0.82605       -4.78673        0.71612
H         -0.29097       -2.77221        2.57393
H          0.37574       -1.28935        1.86247
H         -2.09795       -1.27346        2.95581
H         -1.76798       -0.31576        1.47198
H          2.69960       -2.68968       -0.87133
H          2.50115        2.20089        0.19754
H          0.42015        0.94477       -0.30229
H          4.98512        2.23020        0.47361
H          7.25886       -1.40309       -0.11533
H          5.15449       -2.65746       -0.61354
