34
omegapdb_2f7p_09.log	Energy:    -116.0390913
C          0.92567        0.47133        0.55706
N         -0.27679        0.93111       -0.17021
C         -1.44147        1.23201        0.72335
C         -2.71465        0.55291        0.27774
C         -2.79436       -0.84676        0.23020
C         -3.98371       -1.46668       -0.15913
C         -5.10007       -0.69614       -0.50190
C         -5.02133        0.69898       -0.45883
C         -3.83208        1.32430       -0.07232
C          0.99775       -1.06363        0.87025
O          0.13262       -1.75895       -0.01611
C          2.48633       -1.48729        0.67430
O          2.48364       -2.54968       -0.27965
C          3.24636       -0.22834        0.15889
O          4.06005       -0.70627       -0.92027
C          2.16386        0.74290       -0.32578
S          2.74088        2.44722       -0.13411
H          1.01637        1.02655        1.52727
H         -0.54477        0.22482       -0.87674
H         -1.24794        0.96910        1.78757
H         -1.55738        2.34258        0.69909
H         -1.92071       -1.45529        0.48606
H         -4.04019       -2.55348       -0.19567
H         -6.02594       -1.18144       -0.80296
H         -5.88677        1.30146       -0.72872
H         -3.77703        2.41085       -0.04812
H          0.61856       -1.29491        1.88604
H          0.66138       -2.37184       -0.61364
H          2.93736       -1.91277        1.59322
H          3.05847       -2.31911       -1.06650
H          3.92389        0.19333        0.93272
H          4.35043        0.03421       -1.49610
H          1.92593        0.54939       -1.40120
H          1.58744        3.08081       -0.45994
