34
omegapdb_2f7p_19.log	Energy:    -114.3226672
C         -0.99046        0.11533       -0.99532
N          0.47713       -0.00270       -1.02101
C          1.10382       -0.60730        0.19507
C          2.58967       -0.34463        0.18683
C          3.37082       -0.76945       -0.89882
C          4.74878       -0.54140       -0.90051
C          5.35506        0.10776        0.18050
C          4.57810        0.53139        1.26284
C          3.19764        0.30928        1.26777
C         -1.74357       -1.24057       -0.85144
O         -1.30916       -2.07164        0.22702
C         -3.19810       -0.80673       -0.50894
O         -3.87328       -1.79007        0.26742
C         -3.02822        0.46636        0.38196
O         -3.00112        0.06688        1.76073
C         -1.62064        1.01673        0.10245
S         -1.68377        2.70550       -0.54479
H         -1.26493        0.51864       -2.01674
H          0.89330        0.92246       -1.20303
H          0.91732       -1.71223        0.14735
H          0.64389       -0.25169        1.14385
H          2.89362       -1.27262       -1.74074
H          5.35199       -0.87111       -1.74484
H          6.42898        0.28234        0.17855
H          5.04789        1.03689        2.10481
H          2.60146        0.64458        2.11369
H         -1.63424       -1.89753       -1.73631
H         -1.30652       -1.55451        1.07768
H         -3.83870       -0.63127       -1.39416
H         -3.22791       -2.50431        0.55111
H         -3.85364        1.19242        0.24820
H         -3.73776       -0.58555        1.92540
H         -1.01912        0.98460        1.04423
H         -2.00399        3.36779        0.58896
