34
omegapdb_2f7p_20.log	Energy:    -114.7409929
C         -0.98099        0.52753       -0.85074
N          0.32949        1.16136       -0.61064
C          1.04501        0.77416        0.64755
C          2.47190        0.37040        0.36324
C          2.75148       -0.93071       -0.08125
C          4.06810       -1.31096       -0.34820
C          5.11225       -0.39549       -0.17459
C          4.83502        0.90252        0.26466
C          3.51767        1.28810        0.53183
C         -1.08087       -1.02652       -0.97668
O         -0.25081       -1.65536        0.00606
C         -2.56686       -1.33840       -0.64141
O         -2.59882       -2.65139       -0.08516
C         -2.98378       -0.26287        0.40709
O         -2.84466       -0.86270        1.70057
C         -2.01221        0.91518        0.23582
S         -2.95861        2.37280       -0.29065
H         -1.32218        0.92758       -1.85257
H          0.94285        0.99695       -1.42050
H          0.52746       -0.04990        1.19379
H          1.01084        1.66876        1.31217
H          1.93021       -1.64123       -0.21391
H          4.28270       -2.32179       -0.69031
H          6.13803       -0.69373       -0.38091
H          5.64585        1.61636        0.39875
H          3.30647        2.30181        0.86766
H         -0.76558       -1.39728       -1.97033
H         -0.58867       -2.58692        0.15067
H         -3.22043       -1.35743       -1.53486
H         -2.97637       -2.62169        0.84439
H         -4.06371       -0.00294        0.37279
H         -1.88544       -1.01281        1.90640
H         -1.51613        1.14221        1.21022
H         -1.92055        3.21566       -0.50413
