34
omegapdb_2f7p_06.log	Energy:    -115.9197415
C         -0.61689       -0.44361       -0.08377
N          0.07407       -1.01900        1.09274
C          1.26960       -1.84337        0.73213
C          2.39251       -0.94166        0.27412
C          2.93323       -1.07989       -1.01171
C          3.97619       -0.24449       -1.42395
C          4.48031        0.73166       -0.55940
C          3.94051        0.87100        0.72397
C          2.90067        0.03761        1.14189
C         -1.80855       -1.30546       -0.62938
O         -2.16630       -2.27793        0.34281
C         -2.98175       -0.32271       -0.92487
O         -4.07772       -0.73905       -0.10876
C         -2.47626        1.10295       -0.55732
O         -3.56364        1.70093        0.16262
C         -1.24635        0.90233        0.33558
S         -0.09061        2.27403        0.07671
H          0.10866       -0.28567       -0.92488
H         -0.59253       -1.60357        1.62824
H          1.04667       -2.62718       -0.02550
H          1.58917       -2.38981        1.65165
H          2.54815       -1.83682       -1.69165
H          4.39558       -0.35510       -2.42279
H          5.29113        1.38108       -0.88308
H          4.33469        1.62846        1.39978
H          2.47762        0.14091        2.14139
H         -1.51116       -1.89251       -1.52200
H         -3.08136       -2.07965        0.71244
H         -3.34853       -0.39200       -1.96889
H         -4.36548        0.00154        0.49978
H         -2.28719        1.72091       -1.46213
H         -3.26034        2.48819        0.66446
H         -1.54726        0.87308        1.41222
H          1.01540        1.71904        0.63735
