61
omegapdb_1v2k_00.log	Energy:     -62.4004863
N         -9.09749        2.86311        0.77277
C         -9.04988        1.55705        1.15357
C         -8.09698        0.65169        0.68094
C         -7.12884        1.09372       -0.25423
C         -7.17323        2.45290       -0.65160
C         -8.16443        3.28410       -0.12414
N         -6.23355        0.18319       -0.86461
C         -4.99289        0.72628       -1.49035
C         -3.90099        1.01050       -0.44259
C         -3.58951       -0.23364        0.41051
C         -4.87433       -0.88739        0.95453
C         -5.92552       -1.09075       -0.15089
C         -2.81581       -1.25417       -0.43100
O         -3.26375       -1.75259       -1.45531
N         -1.57895       -1.71165        0.05803
C         -0.76341       -0.98355        1.05937
C          0.39532       -0.22601        0.36918
N          1.23775       -1.12357       -0.46686
C          0.41474       -1.88716       -1.44697
C         -0.77259       -2.62782       -0.79628
S          2.40306       -2.06929        0.41157
O          2.73661       -3.19143       -0.44157
O          1.88242       -2.30336        1.74817
C          3.74816       -0.98514        0.52016
C          4.49849       -0.68319       -0.59017
C          5.60932        0.21032       -0.48936
C          5.92835        0.77680        0.77519
C          5.13379        0.43502        1.91513
C          4.07274       -0.42564        1.78861
C          7.03856        1.67385        0.87913
C          7.76821        1.96249       -0.24538
C          7.46703        1.40332       -1.52067
C          6.40541        0.54277       -1.63367
Cl         9.10837        3.04151       -0.14089
H         -9.81594        1.24302        1.87258
H         -8.11579       -0.38116        1.01639
H         -6.46162        2.84582       -1.37152
H         -8.22882        4.33852       -0.41796
H         -5.22717        1.63962       -2.07671
H         -4.62988       -0.04448       -2.21825
H         -4.23207        1.83105        0.22552
H         -2.98616        1.37234       -0.94701
H         -2.97186        0.09319        1.28946
H         -4.63838       -1.85957        1.42855
H         -5.29369       -0.24691        1.75608
H         -6.85617       -1.53303        0.26310
H         -5.53707       -1.80953       -0.91766
H         -0.34975       -1.73132        1.78770
H         -1.39591       -0.28258        1.64903
H         -0.00781        0.57391       -0.29427
H          1.02490        0.28486        1.12929
H          0.04210       -1.16572       -2.21047
H          1.06453       -2.61485       -1.99030
H         -0.42150       -3.47315       -0.16206
H         -1.42741       -3.07031       -1.58689
H          4.26625       -1.12046       -1.56796
H          5.39164        0.86602        2.88258
H          3.46785       -0.70273        2.66117
H          7.28629        2.10998        1.84728
H          8.08429        1.66728       -2.38038
H          6.15119        0.09664       -2.59695
