45
omegacsd_FABSOQ10_09.log	Energy:     -98.0330709
S         -0.12741        1.41454       -0.68704
C         -1.43877        2.40372       -0.09330
C         -0.95297        3.51325        0.52824
C          0.49044        3.58393        0.52787
C          1.08165        2.52661       -0.09324
C          2.53050        2.26378       -0.34308
O          3.33708        3.10223        0.50155
C          2.90959        0.81219       -0.15475
C          3.67323        0.16349       -1.13115
C          4.06077       -1.17090       -0.97134
C          3.67155       -1.84198        0.19382
O          3.96912       -3.14886        0.50382
C          4.75756       -3.90877       -0.44434
C          2.90574       -1.20748        1.19658
C          2.53144        0.11597        1.00968
C         -2.85666        2.00513       -0.34180
O         -3.72624        2.68560        0.57923
C         -3.07615        0.51137       -0.26672
C         -3.79201       -0.13286       -1.29340
C         -4.02878       -1.50026       -1.24183
C         -3.54181       -2.22989       -0.13584
O         -3.84413       -3.56956       -0.21098
C         -3.38639       -4.43019        0.86035
C         -2.83430       -1.61022        0.90201
C         -2.60780       -0.23329        0.82238
H         -1.56841        4.28489        0.97524
H          1.02714        4.41363        0.97198
H          2.81608        2.64525       -1.36043
H          3.29725        2.80336        1.43345
H          3.97612        0.69840       -2.03297
H          4.64967       -1.65858       -1.74015
H          4.22430       -3.99999       -1.39489
H          5.74396       -3.45319       -0.56990
H          4.83517       -4.88184        0.05837
H          2.62395       -1.76399        2.08706
H          1.93245        0.61891        1.77096
H         -3.20435        2.43215       -1.32116
H         -3.63069        2.32386        1.48419
H         -4.16699        0.44529       -2.13972
H         -4.57682       -2.01783       -2.02581
H         -3.75780       -5.41045        0.53340
H         -2.29385       -4.42293        0.91327
H         -3.84485       -4.13379        1.80793
H         -2.45990       -2.17223        1.75027
H         -2.05160        0.25976        1.62169
