39
omegacsd_FIBREN_00.log	Energy:     -55.6085335
N          3.65895        1.46914        0.50458
C          2.49968        2.22128        0.48357
N          1.22636        1.74226        0.32386
C          1.01545        0.37588        0.18581
C          2.15153       -0.47745        0.18450
C          3.43360        0.14507        0.35200
O          4.39816       -0.83627        0.32828
C          3.63513       -2.06794        0.13996
N          2.33797       -1.87088        0.05630
C          4.48264       -3.26093        0.08512
N         -0.26275       -0.11249        0.08984
C         -1.44751        0.77980        0.04687
C         -1.73188        1.26286       -1.39477
C         -1.84655        0.17524       -2.41222
O         -1.55950       -0.99920       -2.36163
O         -2.36294        0.69467       -3.57815
C         -2.64634        0.08038        0.66318
C         -3.05373       -1.19919        0.26407
C         -4.16648       -1.79879        0.86148
C         -4.87978       -1.12502        1.85700
C         -4.47520        0.15259        2.25802
C         -3.36117        0.75333        1.66677
C          2.65870        3.69440        0.64626
H          4.34806       -3.80646       -0.86596
H          4.23997       -3.96463        0.90127
H          5.55327       -3.00433        0.17408
H         -0.39529       -1.09790       -0.17153
H         -1.20746        1.70776        0.65316
H         -0.91610        1.96140       -1.70940
H         -2.65487        1.88771       -1.40367
H         -2.44300        0.01417       -4.30044
H         -2.50931       -1.73730       -0.51779
H         -4.47592       -2.79525        0.54780
H         -5.74632       -1.59357        2.32061
H         -5.02672        0.67939        3.03547
H         -3.04895        1.74460        1.99358
H          3.04703        3.93486        1.65047
H          1.70883        4.23431        0.51279
H          3.38889        4.09621       -0.07612
