36
omegapdb_1qxw_18.log	Energy:    -105.7014121
C         -4.72270        0.54210        0.31820
C         -4.32431       -0.90084        0.55736
C         -3.24854        0.15584        0.32898
N         -2.57249        0.15755       -0.98045
C         -1.43589       -0.78169       -1.04808
C         -0.19137       -0.47857       -0.17334
C          0.61438        0.81606       -0.49290
N         -0.28609        1.98114       -0.27121
C          1.91275        0.90853        0.34251
C          3.07727        0.13360       -0.28290
C          4.33487        0.20134        0.59399
C          5.49041       -0.58567       -0.01865
O          0.59117       -1.65623       -0.36027
O         -0.47479       -0.41634        1.22445
H         -5.12372        1.13740        1.13282
H         -5.19350        0.80742       -0.62803
H         -4.51966       -1.63366       -0.22461
H         -4.44445       -1.33933        1.54275
H         -2.63012        0.46505        1.18615
H         -2.25980        1.11643       -1.20431
H         -1.10724       -0.83191       -2.11342
H         -1.79326       -1.80919       -0.80062
H          0.86894        0.78888       -1.58653
H          0.19955        2.85209       -0.46701
H         -0.59080        2.01239        0.70191
H          1.71351        0.54772        1.37388
H          2.20726        1.96974        0.45985
H          3.30067        0.52988       -1.29281
H          2.78739       -0.92979       -0.44142
H          4.11241       -0.18837        1.60698
H          4.63734        1.25745        0.73815
H          5.76390       -0.20081       -1.00801
H          6.38546       -0.52973        0.61182
H          5.24188       -1.64650       -0.13844
H          1.45026       -1.61953        0.12679
H         -0.96811       -1.21017        1.52129
