39
omegacsd_FIBREN_12.log	Energy:     -49.9803110
N         -2.25238        1.13861        1.64679
C         -0.92797        1.44270        1.40033
N         -0.14724        0.89062        0.41769
C         -0.66656       -0.06206       -0.43803
C         -2.02745       -0.43829       -0.26023
C         -2.74605        0.20601        0.80079
O         -4.03255       -0.28659        0.81322
C         -4.04594       -1.24823       -0.28328
N         -2.89321       -1.34433       -0.91032
C         -5.34332       -1.90585       -0.45491
N          0.10216       -0.59537       -1.44292
C          1.56801       -0.41033       -1.61853
C          1.97066        1.02547       -2.01930
C          1.50153        2.16798       -1.16393
O          2.02035        2.69321       -0.20649
O          0.38935        2.74204       -1.74317
C          2.33980       -0.99098       -0.44475
C          2.70334       -2.34844       -0.52145
C          3.41497       -2.94776        0.51797
C          3.77073       -2.19917        1.64673
C          3.40722       -0.85399        1.72808
C          2.69121       -0.24992        0.68720
C         -0.27715        2.46155        2.26842
H         -6.14397       -1.17337       -0.66012
H         -5.32228       -2.62401       -1.29354
H         -5.63930       -2.45942        0.45378
H         -0.34440       -1.29387       -2.04341
H          1.82215       -1.03702       -2.53143
H          1.61087        1.20951       -3.06066
H          3.08545        1.06948       -2.05713
H          0.01917        3.48758       -1.20154
H          2.42877       -2.94247       -1.39126
H          3.69247       -3.99814        0.45273
H          4.32654       -2.66692        2.45744
H          3.67679       -0.26645        2.60476
H          2.40222        0.80404        0.77869
H          0.02299        2.01609        3.23170
H         -0.95784        3.29519        2.50186
H          0.63965        2.87153        1.80029
