46
omegacsd_CDBMPI10_12.log	Energy:     -38.4005704
O         -2.07921        2.43264       -0.41151
C         -2.21126        1.21723       -0.47572
N         -1.18417        0.45150       -1.05882
C         -0.96729       -1.02733       -0.97090
C         -0.08317       -1.32748        0.26895
N          1.20869       -0.60139        0.14303
C          1.12608        0.86770       -0.09795
C          0.11945        1.15559       -1.24801
C          0.74510        1.60757        1.18588
C          2.40174       -1.31799        0.27974
O          2.37037       -2.52438        0.47168
C          3.68033       -0.54104        0.17341
C          4.36721       -0.50755       -1.04638
C          5.58235        0.17799       -1.13384
C          6.10809        0.82024       -0.00762
C          5.42190        0.77594        1.21070
C          4.20541        0.09362        1.30562
C         -2.22771       -1.87921       -0.96253
C         -3.48531        0.56558       -0.03181
C         -3.63261        0.18558        1.30854
C         -4.84727       -0.35399        1.74134
C         -5.90879       -0.50412        0.84233
C         -5.76078       -0.10876       -0.49122
C         -4.54925        0.43198       -0.93235
H         -0.38359       -1.29427       -1.90080
H          0.11496       -2.42446        0.34998
H         -0.59430       -1.02365        1.20680
H          2.13528        1.23083       -0.43718
H         -0.06066        2.25704       -1.31962
H          0.54754        0.83637       -2.22259
H          0.71643        2.69311        1.02154
H          1.45846        1.40938        1.99313
H         -0.25066        1.32581        1.54878
H          3.96195       -1.02187       -1.91757
H          6.12248        0.20631       -2.07919
H          7.05636        1.35192       -0.07830
H          5.83714        1.26947        2.08832
H          3.67351        0.04771        2.25559
H         -2.75627       -1.87098       -0.00137
H         -2.94254       -1.55410       -1.73043
H         -1.98222       -2.92803       -1.17897
H         -2.81050        0.31783        2.01043
H         -4.96885       -0.65115        2.78208
H         -6.85461       -0.92325        1.18342
H         -6.59219       -0.21520       -1.18676
H         -4.43399        0.75506       -1.96704
