36
omegapdb_1qxw_05.log	Energy:    -107.4478975
C         -4.93881       -0.84095        0.04431
C         -4.00697       -1.81221       -0.65357
C         -3.49532       -0.95885        0.50922
N         -2.59728        0.17945        0.30950
C         -1.18181       -0.26090        0.11477
C         -0.30398        0.99546       -0.08010
C          1.21438        0.71028       -0.29831
N          1.84599        2.01394       -0.64382
C          1.81890        0.02000        0.94027
C          3.29151       -0.36389        0.76733
C          3.50000       -1.46366       -0.28337
C          4.97093       -1.85298       -0.40764
O         -0.37339        1.88370        1.02601
O         -0.87285        1.66376       -1.19867
H         -5.73372       -1.21898        0.68339
H         -5.27345        0.05184       -0.48031
H         -3.68073       -1.59998       -1.66821
H         -4.14277       -2.88097       -0.51692
H         -3.29039       -1.45710        1.46930
H         -2.88502        0.74954       -0.50205
H         -1.04852       -0.94608       -0.74996
H         -0.84893       -0.80483        1.02695
H          1.31273        0.04149       -1.19453
H          1.78901        2.65347        0.14995
H          2.83086        1.88446       -0.85919
H          1.70506        0.69057        1.81898
H          1.22830       -0.88296        1.19123
H          3.68881       -0.70708        1.74436
H          3.89614        0.52546        0.50626
H          2.89844       -2.35524       -0.01866
H          3.11974       -1.12414       -1.26722
H          5.11003       -2.63872       -1.15919
H          5.37115       -2.23298        0.53939
H          5.59242       -1.00150       -0.70728
H         -1.31208        2.05832        1.28173
H         -0.31111        2.42814       -1.48396
