66
omegapdb_1z1r_11.log	Energy:    -264.5427343
C         -0.25390       -0.65028        0.58615
C          0.25520       -1.57148        1.71839
C          1.68945       -1.94516        1.47580
C          2.71764       -1.24308        2.12319
C          4.05375       -1.46382        1.78296
C          4.34389       -2.40532        0.78747
C          3.33710       -3.17556        0.18045
C          2.01138       -2.93953        0.53455
O          5.63412       -2.68797        0.36489
C          6.49399       -1.54946        0.07796
C          6.01712       -0.82909       -1.18156
C          5.18600        0.42473       -0.88765
C          4.45549        0.86930       -2.13615
O          4.88226        0.73376       -3.26851
N          3.22077        1.53974       -1.99775
C          2.48225        1.71574       -0.74107
C          1.18106        0.86659       -0.79585
O          0.64228        0.55469       -1.84459
N          0.66328        0.51255        0.44226
C          2.13311        3.20417       -0.53589
C          1.89746        3.50770        0.92726
O          1.98135        2.67458        1.82158
N          1.57419        4.82076        1.24054
C         -1.68698       -0.12834        0.88575
O         -2.42151       -1.28728        1.30734
C         -2.36173        0.41346       -0.39839
N         -3.46516        1.36058       -0.14903
S         -4.85972        0.83140        0.69723
O         -4.41991        0.17972        1.93179
O         -5.68958        2.01337        0.81409
C         -5.58509       -0.33407       -0.33893
C         -6.65870        0.04283       -1.15429
C         -7.26161       -0.89818       -1.99317
C         -6.78984       -2.21570       -2.01480
C         -5.71771       -2.59333       -1.19888
C         -5.11498       -1.65214       -0.35973
H         -0.26817       -1.22849       -0.37965
H         -0.40480       -2.46781        1.75994
H          0.12240       -1.09083        2.70784
H          2.47855       -0.50903        2.89349
H          4.85050       -0.92582        2.28813
H          3.60618       -3.92757       -0.55861
H          1.21620       -3.51529        0.06025
H          7.45864       -2.07124       -0.08103
H          6.56587       -0.89994        0.96379
H          5.42356       -1.54380       -1.79786
H          6.87967       -0.55909       -1.82604
H          5.84282        1.25058       -0.54231
H          4.47815        0.22834       -0.05126
H          2.67217        1.67885       -2.85677
H          3.11460        1.36187        0.12853
H          1.10040        0.86198        1.30791
H          2.96559        3.83241       -0.92882
H          1.25139        3.48436       -1.15118
H          1.49370        5.55453        0.56026
H          1.41084        5.07980        2.20406
H         -1.68293        0.62426        1.70259
H         -3.08847       -1.02541        2.02060
H         -2.74300       -0.44838       -0.99693
H         -1.60397        0.90658       -1.05783
H         -3.14193        2.31980        0.01327
H         -7.03195        1.07356       -1.13147
H         -8.09726       -0.60611       -2.62765
H         -7.26013       -2.95075       -2.66978
H         -5.35204       -3.61947       -1.21542
H         -4.27071       -1.95240        0.28003
