25
omegapdb_1m5f_10.log	Energy:    -161.8006036
O         -2.25205       -2.91311        0.00273
C         -1.25488       -1.98742        0.14925
O         -0.14210       -2.39702        0.36569
C         -1.64460       -0.55853        0.01898
N         -2.86788       -0.08795        0.31069
O         -2.86185        1.26996        0.14305
C         -1.56536        1.65836       -0.27342
C         -0.77381        0.53381       -0.37929
C          0.64516        0.43709       -0.79258
C          1.56453        0.18172        0.42181
N          1.54883        1.33483        1.34352
C          2.98879       -0.14193       -0.05056
O          4.03138        0.26122        0.41009
O          2.98825       -0.99888       -1.11769
C         -1.38822        3.09765       -0.46461
H         -3.16703       -2.54172       -0.11599
H          0.77501       -0.40391       -1.51835
H          0.95754        1.35539       -1.33186
H          1.18276       -0.73726        0.97060
H          2.00306        2.14775        0.93575
H          2.03835        1.11742        2.21023
H          3.90638       -1.26109       -1.40433
H         -1.08374        3.34165       -1.49574
H         -0.60605        3.48788        0.21422
H         -2.31155        3.66392       -0.25253
