46
omegacsd_CDBMPI10_07.log	Energy:     -39.5140044
O         -3.05438        2.11057       -0.86356
C         -2.52792        1.16145       -0.30352
N         -1.33225        1.34451        0.40165
C         -0.58538        0.24943        1.08502
C          0.91197        0.64372        1.24725
N          1.42468        1.28861        0.02121
C          0.70697        2.52872       -0.42324
C         -0.64665        2.65850        0.32183
C          1.57701        3.76086       -0.17173
C          2.37621        0.71298       -0.82765
O          2.67415        1.26800       -1.87330
C          3.01484       -0.56637       -0.37082
C          2.50427       -1.79088       -0.81834
C          3.12820       -2.98031       -0.43067
C          4.25688       -2.94354        0.39522
C          4.76715       -1.71683        0.83320
C          4.14812       -0.52324        0.45016
C         -1.19105       -0.03977        2.46163
C         -3.12341       -0.21542       -0.30448
C         -4.16536       -0.51785        0.58016
C         -4.75410       -1.78562        0.54374
C         -4.30861       -2.73965       -0.37702
C         -3.27597       -2.42732       -1.26805
C         -2.68091       -1.16297       -1.23605
H         -0.64815       -0.67292        0.44748
H          1.50378       -0.26215        1.50318
H          1.03930        1.34960        2.10050
H          0.51914        2.42819       -1.52965
H         -1.30013        3.38763       -0.21949
H         -0.50755        3.05913        1.34888
H          1.86396        3.86650        0.87905
H          2.50720        3.69538       -0.75847
H          1.06667        4.67999       -0.48008
H          1.63446       -1.81468       -1.47416
H          2.73849       -3.93595       -0.77840
H          4.74301       -3.87192        0.69282
H          5.65161       -1.68977        1.46817
H          4.54955        0.43520        0.77913
H         -0.60671       -0.78641        3.01020
H         -1.25176        0.86223        3.08247
H         -2.21300       -0.43145        2.37195
H         -4.52334        0.23555        1.28216
H         -5.56637       -2.02617        1.22820
H         -4.77138       -3.72541       -0.40559
H         -2.93964       -3.16714       -1.99310
H         -1.88779       -0.91098       -1.94017
