35
omegacsd_DIAVER_00.log	Energy:     -19.6581441
N          4.22318        0.54365       -0.99192
C          4.39954        0.41661        0.37988
N          3.46373       -0.09929        1.25657
C          2.30847       -0.59909        0.69980
C          2.06236       -0.53424       -0.70736
C          3.05875        0.05909       -1.49251
C          0.81711       -1.09011       -1.32428
C         -0.43947       -0.39692       -0.85901
C         -1.55313       -1.17926       -0.47234
C         -2.71913       -0.55185       -0.05827
C         -2.79130        0.88076       -0.01521
C         -1.69282        1.63787       -0.39553
C         -0.51603        0.99110       -0.81946
O         -4.00908        1.34898        0.42705
C         -4.18156        2.78637        0.47259
O         -3.88031       -1.16335        0.35178
C         -3.93018       -2.60941        0.27678
N          1.43270       -1.21954        1.58775
N          5.62078        0.80717        0.90857
H          2.93703        0.16333       -2.57943
H          0.76820       -2.18287       -1.11770
H          0.86702       -1.01632       -2.43448
H         -1.48872       -2.26204       -0.51829
H         -1.72250        2.72378       -0.37500
H          0.34162        1.59447       -1.11498
H         -3.47781        3.23388        1.17962
H         -4.08611        3.21555       -0.52858
H         -5.21352        2.87019        0.83891
H         -4.95206       -2.80997        0.62633
H         -3.19215       -3.05259        0.95036
H         -3.79767       -2.94447       -0.75569
H          1.61201       -1.10112        2.57795
H          0.45396       -1.26924        1.33683
H          5.70953        0.89806        1.90905
H          6.23785        1.36471        0.33720
