41
omegacsd_CEJTIU_02.log	Energy:     -45.1474980
C         -6.62635       -1.64938       -0.16731
N         -6.12253       -0.25126       -0.05345
C         -6.86583        0.66033       -0.97017
C         -4.69803       -0.09953       -0.05546
C         -3.84879       -1.16355        0.32120
C         -2.47613       -0.97347        0.45486
C         -1.91765        0.29041        0.20803
C         -2.74915        1.36397       -0.16858
C         -4.11914        1.16841       -0.29959
N         -0.51096        0.56390        0.32042
C          0.44308       -0.38850        0.65197
O          0.25574       -1.56977        0.88837
N          1.82249        0.06661        0.73449
C          2.31649        1.36366        0.50100
O          1.56804        2.27644        0.19076
C          3.80544        1.55701        0.69952
C          4.64418        0.47915        0.07485
C          4.74154        0.39386       -1.32249
C          5.52141       -0.60750       -1.90585
C          6.20645       -1.52478       -1.10160
C          6.10994       -1.43844        0.29047
C          5.32988       -0.44007        0.88165
H         -6.34982       -2.15159       -1.10705
H         -6.24161       -2.24635        0.67839
H         -7.72515       -1.64961       -0.08086
H         -6.64375        1.70911       -0.70549
H         -6.63201        0.51091       -2.03535
H         -7.94931        0.51892       -0.82586
H         -4.25701       -2.15225        0.52558
H         -1.83861       -1.81483        0.75077
H         -2.32805        2.35088       -0.35850
H         -4.74709        2.01321       -0.57982
H         -0.21175        1.54383        0.13768
H          2.48443       -0.69520        0.95625
H          4.08665        2.55201        0.27502
H          4.01196        1.65724        1.78916
H          4.20916        1.10544       -1.95256
H          5.59482       -0.67402       -2.99107
H          6.81283       -2.30466       -1.55932
H          6.64305       -2.15164        0.91851
H          5.26397       -0.37894        1.96626
