24
omegapdb_1gs5_17.log	Energy:    -237.9003038
C          0.31067        0.19567        0.23444
C          0.24149        1.69068       -0.09867
O          0.89252        2.61755        0.30413
O         -0.77655        1.90838       -1.00940
C         -0.66121       -0.13179        1.38523
C         -2.12299        0.12469        1.02383
C         -2.62697       -0.86680       -0.00312
O         -3.16317       -1.92015        0.22028
O         -2.45810       -0.51305       -1.31946
N          1.69411       -0.12642        0.61109
C          2.51886       -0.87064       -0.26424
O          2.06801       -1.28743       -1.31192
C          3.91518       -1.08653        0.23108
H          0.03466       -0.40196       -0.69409
H         -0.84435        2.85593       -1.30564
H         -0.39910        0.44992        2.29350
H         -0.52485       -1.20078        1.67056
H         -2.75149        0.02782        1.93927
H         -2.27699        1.16772        0.67533
H         -2.00360        0.36172       -1.47321
H          2.05946        0.31696        1.44915
H          4.47101       -0.14546        0.34829
H          4.47852       -1.70195       -0.49293
H          3.94623       -1.61905        1.19186
