35
omegacsd_DIAVER_02.log	Energy:     -21.7122269
N          3.80418        0.72511       -1.01799
C          3.99499        0.71833        0.35720
N          3.24830       -0.01395        1.25985
C          2.22951       -0.78026        0.73978
C          1.94752       -0.80374       -0.66262
C          2.77822       -0.03198       -1.48350
C          0.83902       -1.62904       -1.23742
C         -0.52608       -1.22026       -0.74230
C         -0.87342        0.14131       -0.68096
C         -2.13686        0.52111       -0.23284
C         -3.08033       -0.47055        0.15967
C         -2.72513       -1.82266        0.09080
C         -1.45246       -2.19317       -0.35617
O         -4.35987       -0.27833        0.63074
C         -4.86189        1.07928        0.70362
O         -2.57672        1.82869       -0.12835
C         -1.64755        2.87689       -0.50013
N          1.55055       -1.57795        1.65547
N          4.96934        1.56294        0.87413
H          2.63561       -0.00788       -2.57261
H          1.03380       -2.70340       -1.01956
H          0.84153       -1.56331       -2.34938
H         -0.13948        0.88536       -0.98445
H         -3.45590       -2.57454        0.38833
H         -1.19908       -3.25035       -0.40943
H         -5.87903        0.92258        1.07956
H         -4.25657        1.66577        1.40297
H         -4.86326        1.53493       -0.29203
H         -2.24349        3.77831       -0.30995
H         -0.76238        2.84843        0.14249
H         -1.38535        2.79492       -1.55888
H          1.71342       -1.40468        2.64019
H          0.61504       -1.88544        1.42504
H          5.65356        1.94619        0.23788
H          5.26424        1.42554        1.82971
