34
omegapdb_2f7p_08.log	Energy:    -116.0391137
C          0.92587        0.47183        0.55752
N         -0.27713        0.93167       -0.16882
C         -1.44172        1.23056        0.72554
C         -2.71477        0.55212        0.27857
C         -2.79429       -0.84746        0.22866
C         -3.98349       -1.46688       -0.16197
C         -5.09990       -0.69592       -0.50359
C         -5.02135        0.69916       -0.45809
C         -3.83225        1.32398       -0.07034
C          0.99813       -1.06306        0.87078
O          0.13351       -1.75812       -0.01640
C          2.48687       -1.48638        0.67527
O          2.48469       -2.55043       -0.27680
C          3.24636       -0.22788        0.15796
O          4.05869       -0.70668       -0.92178
C          2.16343        0.74314       -0.32624
S          2.74058        2.44752       -0.13562
H          1.01726        1.02720        1.52761
H         -0.54478        0.22608       -0.87614
H         -1.24807        0.96539        1.78917
H         -1.55784        2.34115        0.70363
H         -1.92062       -1.45630        0.48371
H         -4.03981       -2.55363       -0.20040
H         -6.02565       -1.18078       -0.80567
H         -5.88685        1.30196       -0.72708
H         -3.77733        2.41048       -0.04428
H          0.61866       -1.29455        1.88640
H          0.66229       -2.37427       -0.61059
H          2.93814       -1.91022        1.59486
H          3.05743       -2.32003       -1.06518
H          3.92481        0.19434        0.93072
H          4.34912        0.03351       -1.49807
H          1.92476        0.54920       -1.40145
H          1.58676        3.08103       -0.46031
