39
omegacsd_GALSEM_04.log	Energy:    -242.5924633
S         -2.52869        0.11717        1.40334
O         -1.37661       -0.43870        2.13423
O         -3.60309        0.70653        2.14860
N         -3.12212       -1.34347        0.65184
C         -4.15311       -1.35827       -0.30809
O         -4.58540       -0.29162       -0.70512
C         -4.64621       -2.70922       -0.77604
C         -3.61877       -3.40561       -1.65814
C         -1.96729        1.11973        0.16624
C         -0.59825        1.28655       -0.17036
N          0.38852        0.64154        0.55147
C          1.80032        0.83547        0.34837
C          2.60188       -0.30623        0.16599
C          3.98283       -0.14594        0.02102
C          4.56376        1.12992        0.05425
C          3.75420        2.25488        0.24046
C          2.37381        2.11829        0.39243
C          4.88245       -1.33947       -0.17994
F          4.28596       -2.54202       -0.19560
F          5.56982       -1.31323       -1.33523
F          5.83439       -1.47069        0.75963
C         -0.27129        2.12754       -1.27875
C         -1.28440        2.79539       -1.94215
N         -2.61049        2.68674       -1.58704
C         -2.92689        1.86615       -0.57507
H         -2.74018       -2.24211        0.97871
H         -4.92402       -3.34682        0.08838
H         -5.59285       -2.55374       -1.34430
H         -3.35134       -2.79029       -2.52873
H         -4.01569       -4.35378       -2.04543
H         -2.69254       -3.63643       -1.11925
H          0.13137       -0.00563        1.35139
H          2.13682       -1.29432        0.14070
H          5.64280        1.25384       -0.06069
H          4.20703        3.24778        0.27418
H          1.74657        2.99716        0.55513
H          0.75892        2.22685       -1.61095
H         -1.08100        3.45641       -2.79540
H         -4.00718        1.78144       -0.33324
