39
omegacsd_GALSEM_12.log	Energy:    -242.2799965
S         -2.28145       -1.05726       -1.15353
O         -1.09953       -1.92698       -1.03485
O         -3.16748       -1.24240       -2.26684
N         -3.13381       -1.50756        0.30223
C         -4.28265       -0.82089        0.75441
O         -4.61446        0.18188        0.15053
C         -4.99505       -1.41258        1.94878
C         -5.78988       -0.34436        2.68971
C         -1.80409        0.55260       -0.96688
C         -0.51814        0.96004       -0.52735
N          0.43901        0.01493       -0.19470
C          1.71278        0.31548        0.39685
C          2.85711       -0.29411       -0.15299
C          4.09829       -0.06579        0.44595
C          4.21008        0.75962        1.57428
C          3.06474        1.35462        2.11158
C          1.81301        1.13494        1.53510
C          5.35210       -0.69681       -0.10722
F          5.20213       -1.48553       -1.18232
F          6.28275        0.19298       -0.49422
F          6.00031       -1.48008        0.77242
C         -0.23966        2.35812       -0.45464
C         -1.22791        3.26315       -0.80135
N         -2.48303        2.87967       -1.21538
C         -2.74814        1.56678       -1.29145
H         -2.82554       -2.35392        0.79892
H         -5.67958       -2.21259        1.58484
H         -4.29045       -1.91262        2.64351
H         -6.43499        0.22190        1.99906
H         -5.13311        0.38692        3.17719
H         -6.43177       -0.78627        3.46011
H          0.28233       -1.00301       -0.44643
H          2.75912       -0.93160       -1.03569
H          5.18175        0.93990        2.03866
H          3.14959        1.99165        2.99402
H          0.91993        1.58611        1.97092
H          0.74761        2.71131       -0.16720
H         -1.05664        4.34766       -0.76743
H         -3.77077        1.29044       -1.62139
