41
omegacsd_CEJTIU_08.log	Energy:     -38.0470414
C         -5.78936        0.29201        1.21599
N         -4.97469        0.68223        0.03079
C         -5.79408        0.65623       -1.21475
C         -3.68220        0.07595       -0.06810
C         -2.96925        0.12191       -1.28912
C         -1.65657       -0.33152       -1.36693
C         -1.02296       -0.85005       -0.22118
C         -1.71722       -0.90707        0.99799
C         -3.02965       -0.45098        1.06975
N          0.33233       -1.30912       -0.37072
C          1.11753       -1.81298        0.66992
O          0.71952       -2.08365        1.78745
N          2.48927       -2.13268        0.35227
C          3.43607       -1.55722       -0.53394
O          4.54372       -2.05639       -0.54255
C          3.06257       -0.37409       -1.39985
C          2.94428        0.88871       -0.58903
C          4.02950        1.30554        0.19839
C          3.93690        2.48189        0.94467
C          2.76697        3.24885        0.90737
C          1.68911        2.83532        0.11974
C          1.77386        1.65772       -0.63048
H         -5.24309        0.55552        2.13892
H         -6.72426        0.87620        1.22474
H         -6.04667       -0.77786        1.25202
H         -5.24810        1.16768       -2.02667
H         -6.72472        1.22413       -1.05122
H         -6.05837       -0.35720       -1.55391
H         -3.44027        0.52837       -2.18340
H         -1.13460       -0.28454       -2.32041
H         -1.23331       -1.31239        1.89527
H         -3.54321       -0.50051        2.02928
H          0.75205       -1.17155       -1.29539
H          2.89411       -2.83114        1.00906
H          3.87339       -0.23915       -2.16061
H          2.15332       -0.57545       -2.00246
H          4.94297        0.71018        0.22970
H          4.77834        2.80149        1.55871
H          2.69618        4.16396        1.49264
H          0.77511        3.42814        0.09140
H          0.92394        1.35012       -1.23593
