41
omegacsd_CEJTIU_07.log	Energy:     -40.4677076
C          6.33738       -2.29808        0.27529
N          6.22577       -0.81225        0.29985
C          7.30856       -0.17950       -0.50632
C          4.91293       -0.27983        0.09998
C          3.76157       -1.05172        0.37616
C          2.48963       -0.48986        0.32095
C          2.33739        0.86325       -0.02010
C          3.47230        1.64853       -0.30137
C          4.74100        1.08213       -0.24280
N          1.05452        1.51282       -0.09239
C         -0.17937        0.85447        0.03414
O         -0.31177       -0.34234        0.22704
N         -1.31108        1.72250       -0.07962
C         -2.70028        1.33150       -0.00870
O         -3.48023        2.25390       -0.10113
C         -2.99686       -0.12412        0.18394
C         -4.44646       -0.49905        0.05046
C         -4.77879       -1.69216       -0.61120
C         -6.11506       -2.08818       -0.70981
C         -7.12644       -1.29936       -0.15265
C         -6.79647       -0.10923        0.50311
C         -5.46197        0.29124        0.60806
H          5.69485       -2.72702        1.06452
H          7.37244       -2.59069        0.51690
H          6.06226       -2.75298       -0.68875
H          7.18840       -0.30635       -1.59320
H          7.35310        0.90041       -0.28055
H          8.28109       -0.60566       -0.20980
H          3.85279       -2.10223        0.64970
H          1.61307       -1.11053        0.54068
H          3.37116        2.69959       -0.56573
H          5.60721        1.70870       -0.45185
H          1.08095        2.51784       -0.26613
H         -1.16840        2.73176       -0.21987
H         -2.36439       -0.73520       -0.51317
H         -2.61916       -0.44885        1.18818
H         -3.99931       -2.31293       -1.04872
H         -6.36810       -3.01395       -1.22375
H         -8.16610       -1.60912       -0.23147
H         -7.58125        0.51144        0.93301
H         -5.21346        1.23168        1.10301
