36
omegapdb_1qxw_00.log	Energy:    -104.7741086
C         -4.08991       -1.84287        0.33989
C         -5.05872       -0.67907        0.28370
C         -3.77442       -0.63381       -0.53543
N         -2.72857        0.28374       -0.05143
C         -1.38852       -0.07426       -0.60498
C         -0.35126        0.91881       -0.03459
C          1.12114        0.66754       -0.48682
N          1.92335        1.81652        0.01722
C          1.60929       -0.71221       -0.00204
C          3.01124       -1.06988       -0.50984
C          4.11150       -0.78136        0.52192
C          5.49775       -1.11270       -0.02567
O         -0.32252        0.92155        1.38512
O         -0.81121        2.19739       -0.45375
H         -3.51069       -2.00089        1.24918
H         -4.34906       -2.78829       -0.12696
H         -5.15674       -0.03236        1.15525
H         -6.01186       -0.78874       -0.22601
H         -3.84511       -0.75200       -1.62626
H         -2.96046        1.25325       -0.32185
H         -1.13520       -1.10670       -0.27349
H         -1.34329       -0.05864       -1.71487
H          1.14531        0.70893       -1.60807
H          1.91812        1.82502        1.03851
H          2.89265        1.72701       -0.27814
H          0.89391       -1.49143       -0.33145
H          1.56724       -0.74508        1.10716
H          3.03872       -2.14605       -0.77466
H          3.23091       -0.53657       -1.45501
H          4.07873        0.27943        0.83520
H          3.92347       -1.36943        1.44256
H          5.73610       -0.51904       -0.91545
H          5.58049       -2.16924       -0.30577
H          6.27603       -0.91167        0.71962
H         -1.23706        0.98276        1.75682
H         -0.15435        2.90509       -0.23469
