50
omegapdb_1xom_17.log	Energy:    -139.4065866
O         -7.08009        0.51065        0.20914
C         -6.13008       -0.35583       -0.30952
O         -6.54226       -1.41315       -0.70277
C         -4.70407        0.17257       -0.31750
C         -4.15668        0.22566        1.12034
C         -2.71561        0.74469        1.13036
C         -1.77949       -0.10973        0.23359
C         -2.36808       -0.23623       -1.19792
C         -3.81636       -0.72755       -1.19497
C         -1.68877       -1.45095        0.84581
N         -1.63650       -2.49644        1.33249
C         -0.38060        0.49579        0.11606
C         -0.17365        1.87037        0.24288
C          1.10805        2.42082        0.10065
C          2.19443        1.59712       -0.18465
O          3.49482        2.03291       -0.36057
C          3.77265        3.43137       -0.10465
C          1.99603        0.19152       -0.32887
C          0.71053       -0.34020       -0.17466
O          2.92557       -0.75039       -0.67073
C          4.36185       -0.47090       -0.52403
C          4.99505       -1.71828       -1.15947
C          6.04427       -2.22505       -0.15827
C          5.65000       -1.65694        1.21866
C          4.75784       -0.43102        0.95965
H         -6.73944        1.36790        0.53809
H         -4.70622        1.20377       -0.75267
H         -4.79032        0.86860        1.75988
H         -4.19958       -0.78685        1.57730
H         -2.69319        1.79803        0.78377
H         -2.32565        0.75782        2.16815
H         -2.29632        0.74846       -1.70097
H         -1.73934       -0.92384       -1.79966
H         -3.87127       -1.77708       -0.83280
H         -4.20975       -0.75799       -2.23070
H         -1.00729        2.54038        0.45231
H          1.23572        3.49502        0.20786
H          3.52826        3.68811        0.92974
H          4.85598        3.47575       -0.27679
H          3.23755        4.06107       -0.82121
H          0.59059       -1.42020       -0.28730
H          4.58408        0.46765       -1.06976
H          4.20713       -2.48173       -1.33215
H          5.43130       -1.49902       -2.14580
H          7.05279       -1.88021       -0.44643
H          6.08446       -3.32663       -0.14161
H          5.09790       -2.41536        1.80259
H          6.53874       -1.39169        1.81308
H          5.28290        0.50993        1.19474
H          3.85825       -0.45039        1.60142
