57
omegacsd_SPIRIL_06.log	Energy:     -31.9444277
C          2.78952       -0.34960        1.28098
C          3.27471       -0.93121       -0.06025
C          3.35034       -2.48337        0.06597
O          2.44860       -3.28146        0.20153
N          4.69761       -2.85474        0.03853
C          5.60715       -1.70998       -0.20688
N          4.68658       -0.53905       -0.42449
C          5.18856        0.76620       -0.13490
C          4.37971        1.89031       -0.41982
C          4.88922        3.17482       -0.25504
C          6.20256        3.37162        0.18972
C          7.00416        2.26350        0.46867
C          6.51010        0.96569        0.31524
C          2.33227       -0.53956       -1.21259
C          0.87357       -0.88150       -0.87651
N          0.47974       -0.18917        0.39574
C         -0.98044       -0.38361        0.68401
C         -1.79321        0.59111       -0.18954
C         -3.25042        0.51827        0.14126
C         -4.23691        0.34029       -0.74992
C         -5.65408        0.30512       -0.30421
C         -6.30760        1.49771        0.04595
C         -7.64189        1.47928        0.45884
C         -8.29295        0.24360        0.51167
C         -7.67308       -0.96268        0.17285
C         -6.33927       -0.91899       -0.23916
F         -9.56872        0.21373        0.90540
C         -4.04624        0.17641       -2.22375
C          1.31437       -0.70139        1.53415
H          2.89721        0.75621        1.27372
H          3.41458       -0.71143        2.11761
H          5.03076       -3.80710        0.00621
H          6.20868       -1.85283       -1.13713
H          6.29705       -1.57500        0.66229
H          3.35706        1.75087       -0.78523
H          4.25846        4.03585       -0.47794
H          6.59257        4.37794        0.31412
H          8.02806        2.40743        0.81396
H          7.15756        0.12561        0.55015
H          2.63790       -1.03436       -2.15315
H          2.42590        0.55644       -1.39745
H          0.74870       -1.98894       -0.81958
H          0.21172       -0.51791       -1.69152
H         -1.16820       -0.15845        1.75659
H         -1.32544       -1.42634        0.51628
H         -1.42544        1.62838       -0.02723
H         -1.60765        0.38351       -1.26501
H         -3.48081        0.63238        1.20291
H         -5.76909        2.44423       -0.00556
H         -8.15432        2.40037        0.73047
H         -8.20914       -1.90844        0.22767
H         -5.82495       -1.84178       -0.50793
H         -4.48484        1.02278       -2.77150
H         -2.98414        0.11768       -2.50312
H         -4.53449       -0.73617       -2.59240
H          1.20786       -1.80092        1.68518
H          0.97574       -0.20332        2.46784
