66
omegapdb_1z1r_10.log	Energy:    -267.1217120
C         -0.29013       -1.88660        0.56341
C         -1.24201       -3.00624        0.07899
C         -2.66392       -2.51866        0.02098
C         -3.25689       -1.93323        1.15219
C         -4.50371       -1.31719        1.06349
C         -5.17078       -1.31977       -0.16997
C         -4.63586       -1.97439       -1.29355
C         -3.38005       -2.56848       -1.18694
O         -6.40353       -0.73306       -0.37851
C         -6.69962        0.49278        0.35139
C         -6.26645        1.69941       -0.48124
C         -4.74949        1.89246       -0.55254
C         -4.16530        2.30332        0.77942
O         -4.81590        2.70992        1.72734
N         -2.76251        2.28768        0.92666
C         -1.82595        1.61466        0.01842
C         -1.16029        0.43756        0.77861
O         -1.02074        0.42080        1.99070
N         -0.67149       -0.58270       -0.03360
C         -0.71807        2.57104       -0.46370
C          0.00939        1.94267       -1.64108
O         -0.56096        1.18173       -2.41764
N          1.32781        2.32186       -1.85075
C          1.18692       -2.17314        0.17104
O          1.53347       -3.52035        0.50306
C          2.14711       -1.19395        0.88390
N          3.54917       -1.34515        0.43433
S          4.16470       -0.20110       -0.69238
O          4.43403       -0.89647       -1.93215
O          3.22711        0.92270       -0.71504
C          5.65098        0.29404        0.02491
C          6.86092       -0.04987       -0.58945
C          8.07160        0.35296       -0.01994
C          8.07073        1.09912        1.16413
C          6.86162        1.44389        1.77828
C          5.65061        1.04107        1.20755
H         -0.36949       -1.80266        1.68455
H         -1.15570       -3.88006        0.75755
H         -0.91188       -3.39060       -0.90841
H         -2.72796       -1.92892        2.10684
H         -4.94945       -0.84121        1.93531
H         -5.20000       -1.99647       -2.22327
H         -2.94630       -3.05858       -2.05888
H         -6.24455        0.48407        1.35722
H         -7.80111        0.42900        0.43949
H         -6.73674        2.61150       -0.05104
H         -6.66366        1.59205       -1.51231
H         -4.27138        0.96189       -0.93378
H         -4.51187        2.67544       -1.30649
H         -2.39276        2.49914        1.86342
H         -2.37596        1.21970       -0.88808
H         -0.83912       -0.57397       -1.04842
H         -1.16862        3.53518       -0.79194
H         -0.03799        2.84402        0.36660
H          1.91220        2.62504       -1.07714
H          1.86281        1.78961       -2.53482
H          1.32581       -2.16590       -0.93669
H          1.47322       -3.67825        1.46763
H          1.79515       -0.14101        0.74530
H          2.12624       -1.37459        1.98530
H          3.77587       -2.34135        0.27134
H          6.86032       -0.63179       -1.51978
H          9.01385        0.08694       -0.49815
H          9.01613        1.41369        1.60953
H          6.86308        2.02559        2.69946
H          4.70779        1.31525        1.68947
