50
omegapdb_1xom_18.log	Energy:    -137.6744476
O         -5.83617       -2.63139        0.12389
C         -5.56309       -1.33544       -0.28513
O         -6.51679       -0.65668       -0.55402
C         -4.08792       -0.96972       -0.34454
C         -3.90406        0.33494       -1.13982
C         -2.43184        0.74680       -1.18860
C         -1.80152        0.86718        0.22560
C         -2.05070       -0.42811        1.04650
C         -3.53294       -0.81214        1.08286
C         -2.45607        1.97782        0.94711
N         -2.98425        2.83230        1.51625
C         -0.30789        1.14081        0.06563
C          0.21395        2.43358        0.15975
C          1.58126        2.68143       -0.02482
C          2.44408        1.62217       -0.31096
O          3.80163        1.71115       -0.49160
C          4.38820        3.03747       -0.50092
C          1.91810        0.30230       -0.42863
C          0.55930        0.07334       -0.23816
O          2.73775       -0.72783       -0.84849
C          3.23302       -1.61778        0.21140
C          3.77694       -2.82136       -0.57480
C          5.25602       -2.98184       -0.18284
C          5.52215       -2.01866        0.99102
C          4.40728       -0.96330        0.95252
H         -5.05666       -3.17957        0.35004
H         -3.53432       -1.78811       -0.87017
H         -4.29846        0.21293       -2.16847
H         -4.52068        1.14105       -0.68645
H         -1.84798        0.01435       -1.78110
H         -2.32808        1.71105       -1.72573
H         -1.45883       -1.25814        0.61051
H         -1.66753       -0.29344        2.07774
H         -3.66352       -1.74631        1.66115
H         -4.11389       -0.03800        1.62949
H         -0.43438        3.28465        0.37880
H          1.95107        3.69989        0.06060
H          5.44274        2.80809       -0.70523
H          4.27053        3.51281        0.47661
H          3.95841        3.64044       -1.30586
H          0.17843       -0.94307       -0.34693
H          2.38471       -1.86936        0.87292
H          3.19662       -3.73197       -0.35992
H          3.67038       -2.63196       -1.66268
H          5.90778       -2.73283       -1.03926
H          5.48809       -4.02284        0.09356
H          6.51832       -1.55385        0.91072
H          5.50875       -2.56377        1.95097
H          4.12789       -0.61630        1.95772
H          4.73347       -0.06081        0.38980
