44
omegacsd_CUHNEY10_11.log	Energy:     -27.5815823
Cl        -4.64744       -2.87278       -0.48817
C         -2.99415       -2.47163       -0.30962
C         -2.43698       -1.45083       -1.09803
N         -1.13606       -1.09382       -0.98640
C         -0.35295       -1.76769       -0.08121
N          1.01210       -1.36675       -0.04442
C          2.05067       -1.99310        0.74330
O          1.87647       -2.90698        1.49889
C          3.30568       -1.26316        0.34494
N          4.55745       -1.51983        0.74737
C          5.51670       -0.71000        0.20498
C          5.20839        0.31189       -0.71747
N          3.92575        0.57097       -1.12096
C          2.98801       -0.21676       -0.57917
C          1.48238       -0.15912       -0.80392
O          0.99940        0.97618       -0.05612
C          0.34977        1.98604       -0.79431
O          0.24848        1.92892       -1.99843
N          0.03244        3.05498        0.05601
C         -0.96791        4.02858       -0.48431
C         -2.25057        4.08420        0.37629
N         -2.62790        2.80170        1.03275
C         -1.51694        2.29324        1.89749
C         -0.10548        2.79462        1.51416
C         -3.06970        1.78350        0.03451
C         -0.85581       -2.80459        0.73966
C         -2.19727       -3.15486        0.61687
H         -3.03251       -0.90206       -1.84086
H          6.54772       -0.90430        0.52777
H          5.98718        0.94979       -1.15613
H          1.13176       -0.13356       -1.86776
H         -0.46735        5.02316       -0.50055
H         -1.21037        3.77989       -1.54375
H         -3.10372        4.42992       -0.24650
H         -2.13449        4.84032        1.18563
H         -1.75595        2.63247        2.93190
H         -1.52839        1.18319        1.92680
H          0.12402        3.75247        2.03427
H          0.67006        2.06188        1.83542
H         -3.92475        2.18538       -0.53250
H         -2.29966        1.46358       -0.68446
H         -3.43251        0.89249        0.57279
H         -0.20662       -3.32414        1.45337
H         -2.62217       -3.95087        1.23330
