34
omegapdb_2f7p_05.log	Energy:    -114.6118949
C         -0.95819        0.23671       -0.67364
N          0.39249        0.04483       -0.07490
C          1.45040       -0.18663       -1.11130
C          2.80406       -0.12790       -0.44607
C          3.28527       -1.23735        0.26407
C          4.53986       -1.18316        0.87726
C          5.31705       -0.02380        0.78622
C          4.83565        1.08457        0.08223
C          3.58100        1.03628       -0.53207
C         -1.59093       -1.16284       -0.96176
O         -1.03590       -2.22190       -0.18005
C         -3.09394       -1.06237       -0.56919
O         -3.45879       -2.06808        0.36960
C         -3.30962        0.31979        0.12731
O         -3.94301        0.17723        1.38480
C         -1.90428        0.92311        0.32941
S         -1.85695        2.72154        0.14563
H         -0.92634        0.80425       -1.63918
H          0.64727        0.85406        0.50867
H          1.27742       -1.19690       -1.55338
H          1.39716        0.53542       -1.95696
H          2.67784       -2.13809        0.34162
H          4.91204       -2.04590        1.42793
H          6.29445        0.01605        1.26356
H          5.43860        1.98874        0.01276
H          3.21222        1.90399       -1.07563
H         -1.44920       -1.48801       -2.01183
H         -0.36687       -1.85865        0.47417
H         -3.77798       -1.20624       -1.42935
H         -2.63794       -2.59256        0.64560
H         -3.99016        0.97831       -0.45338
H         -3.93233       -0.78490        1.67569
H         -1.59405        0.72335        1.39115
H         -2.45472        2.85217       -1.05686
