50
omegapdb_1xom_10.log	Energy:    -144.2436698
O         -5.38616       -2.93554       -0.06106
C         -5.04048       -1.60333       -0.15495
O         -5.82059       -0.81889       -0.63620
C         -3.64532       -1.40722        0.40428
C         -2.67215       -1.14729       -0.76325
C         -2.56727        0.34203       -1.09542
C         -2.00361        1.16528        0.09990
C         -2.32646        0.48312        1.46111
C         -3.66996       -0.24619        1.41943
C         -2.68955        2.47412        0.07894
N         -3.24788        3.48476        0.06861
C         -0.49065        1.34247       -0.01786
C          0.12502        2.58845        0.10666
C          1.51898        2.71237        0.00482
C          2.30928        1.58851       -0.22207
O          3.68734        1.59991       -0.34790
C          4.36102        2.87414       -0.20400
C          1.69408        0.30738       -0.34061
C          0.30425        0.20281       -0.23245
O          2.29803       -0.89409       -0.59918
C          3.75459       -1.03653       -0.47214
C          3.99698       -2.45511       -1.01319
C          4.66668       -3.25643        0.11635
C          5.05688       -2.24800        1.21507
C          4.17021       -1.01137        1.00598
H         -6.29141       -3.12882       -0.42167
H         -3.33245       -2.34964        0.92562
H         -2.97799       -1.71604       -1.66326
H         -1.66574       -1.54158       -0.49237
H         -3.57497        0.71900       -1.37793
H         -1.93137        0.49459       -1.98901
H         -2.32458        1.23703        2.27254
H         -1.51712       -0.22801        1.72268
H         -3.92601       -0.63128        2.42475
H         -4.47445        0.47671        1.15744
H         -0.45767        3.49281        0.28316
H          1.96550        3.69947        0.10029
H          4.19331        3.28457        0.79563
H          5.41095        2.58524       -0.34151
H          4.03961        3.56483       -0.98920
H         -0.14987       -0.78897       -0.32574
H          4.22971       -0.24408       -1.08407
H          3.03391       -2.91262       -1.31604
H          4.62283       -2.42759       -1.91975
H          5.54653       -3.80939       -0.25016
H          3.96795       -4.01165        0.51777
H          6.12440       -1.97846        1.13218
H          4.92121       -2.67640        2.22130
H          4.68814       -0.07298        1.26332
H          3.27076       -1.05636        1.64867
