50
omegapdb_1xom_04.log	Energy:    -146.4002254
O          6.32397       -0.54176        0.19466
C          5.49353       -1.60384       -0.07894
O          5.96717       -2.70296       -0.24493
C          4.04001       -1.17846       -0.12585
C          3.60883       -0.61762        1.24114
C          2.14330       -0.17726        1.20779
C          1.86282        0.84876        0.07554
C          2.36589        0.31079       -1.29225
C          3.82874       -0.13590       -1.23823
C          2.61366        2.08160        0.38779
N          3.22268        3.03163        0.63286
C          0.36275        1.12696       -0.01394
C         -0.16590        2.41241        0.10538
C         -1.54864        2.63098        0.00874
C         -2.41426        1.56348       -0.21427
O         -3.78782        1.66864       -0.33933
C         -4.37859        2.97700       -0.14433
C         -1.88764        0.24346       -0.33659
C         -0.50744        0.04374       -0.23231
O         -2.57283       -0.91154       -0.59997
C         -4.03418       -0.96303       -0.45070
C         -4.36703       -2.35001       -1.02226
C         -5.27860       -3.03211        0.00915
C         -5.03021       -2.32442        1.35526
C         -4.42730       -0.94647        1.03435
H          7.28309       -0.80398        0.22912
H          3.43503       -2.09486       -0.35767
H          3.75317       -1.37955        2.03169
H          4.26501        0.23608        1.51750
H          1.48798       -1.06117        1.07287
H          1.85600        0.25986        2.18474
H          2.23623        1.09090       -2.06874
H          1.72362       -0.53461       -1.61085
H          4.12906       -0.55430       -2.21861
H          4.49484        0.73658       -1.06244
H          0.47688        3.27671        0.27446
H         -1.92657        3.64638        0.10438
H         -4.02531        3.67098       -0.91266
H         -4.17197        3.34390        0.86491
H         -5.44632        2.75840       -0.27432
H         -0.12923       -0.97493       -0.32769
H         -4.46716       -0.12660       -1.03485
H         -4.83910       -2.28091       -2.01426
H         -3.42736       -2.92307       -1.16626
H         -6.33774       -2.93797       -0.28875
H         -5.06964       -4.11219        0.07830
H         -5.96140       -2.23176        1.93690
H         -4.33170       -2.91359        1.97579
H         -5.14406       -0.13209        1.23464
H         -3.54446       -0.73898        1.66559
