39
omegacsd_FIBREN_02.log	Energy:     -55.0949074
N          3.67181        1.54500        0.49761
C          2.43134        2.14275        0.62735
N          1.21782        1.53502        0.44051
C          1.16520        0.19063        0.10047
C          2.39261       -0.50621       -0.06449
C          3.59797        0.24051        0.15433
O          4.67023       -0.60028       -0.04589
C          4.05066       -1.87534       -0.39259
N          2.73596       -1.83236       -0.40654
C          5.02653       -2.93601       -0.65214
N         -0.04627       -0.42723       -0.07220
C         -1.34606        0.26777        0.13454
C         -1.64109        1.20139       -1.06230
C         -2.85232        2.03968       -0.80670
O         -3.33228        2.44127        0.22574
O         -3.43781        2.37636       -2.00908
C         -2.42996       -0.77917        0.30792
C         -2.71391       -1.70703       -0.70505
C         -3.71747       -2.66101       -0.51772
C         -4.44469       -2.69016        0.67694
C         -4.16769       -1.76131        1.68461
C         -3.16182       -0.80750        1.50324
C          2.41998        3.58527        0.99916
H          5.68464       -3.10218        0.21919
H          5.68073       -2.68420       -1.50552
H          4.52743       -3.89383       -0.88303
H         -0.05714       -1.41677       -0.33118
H         -1.26471        0.91317        1.06116
H         -0.76726        1.88279       -1.22600
H         -1.74574        0.63525       -2.01250
H         -4.24121        2.95147       -1.89741
H         -2.16112       -1.68506       -1.64321
H         -3.93526       -3.38119       -1.30527
H         -5.22737       -3.43373        0.82063
H         -4.73683       -1.77779        2.61353
H         -2.95732       -0.07953        2.28992
H          2.86416        4.20046        0.19888
H          1.40078        3.95876        1.18894
H          3.02409        3.76525        1.90464
