50
omegapdb_1xom_21.log	Energy:    -137.4228228
O         -5.12782        3.07114        0.25743
C         -5.01253        1.70547        0.04687
O         -5.94090        1.03712        0.41336
C         -3.71688        1.25931       -0.61684
C         -2.57575        1.29435        0.42022
C         -2.39150       -0.05240        1.12292
C         -2.01244       -1.18703        0.12617
C         -2.58232       -0.90668       -1.29404
C         -3.90496       -0.14379       -1.22793
C         -2.64437       -2.42372        0.63187
N         -3.16013       -3.37948        1.02371
C         -0.49705       -1.35514        0.02596
C          0.12066       -2.60206        0.12970
C          1.51385       -2.72376        0.01541
C          2.30089       -1.59795       -0.21335
O          3.67714       -1.60703       -0.35285
C          4.35928       -2.87186       -0.16884
C          1.68221       -0.31787       -0.32621
C          0.29360       -0.21541       -0.20359
O          2.28220        0.88261       -0.59918
C          3.73713        1.03336       -0.45867
C          4.14029        1.01276        1.02277
C          5.01572        2.25628        1.23844
C          4.62902        3.26013        0.13437
C          3.97707        2.45197       -1.00071
H         -4.36723        3.61327       -0.03712
H         -3.47100        1.97268       -1.44242
H         -2.75220        2.08504        1.17576
H         -1.62556        1.57270       -0.09219
H         -3.32994       -0.31399        1.65744
H         -1.61547        0.02820        1.90936
H         -1.84115       -0.33293       -1.88612
H         -2.71668       -1.85933       -1.84350
H         -4.34825       -0.05801       -2.23831
H         -4.64506       -0.72248       -0.62904
H         -0.45977       -3.50910        0.30067
H          1.96252       -3.71081        0.10260
H          5.40795       -2.57910       -0.30809
H          4.04762       -3.58614       -0.93657
H          4.18845       -3.25581        0.84081
H         -0.16203        0.77572       -0.29257
H          4.22118        0.24202       -1.06523
H          3.23545        1.05112        1.65842
H          4.66355        0.07883        1.28557
H          4.86714        2.68516        2.24271
H          6.08603        1.99451        1.16665
H          3.92078        4.01068        0.52766
H          5.50844        3.81921       -0.22398
H          3.01538        2.90304       -1.31631
H          4.61422        2.42551       -1.89950
