40
omegapdb_2byh_15.log	Energy:     -94.7122062
O         -7.07823        1.09653        0.55808
C         -5.97694        1.49920        0.24345
C         -5.78893        2.87061       -0.33855
C         -4.76803        0.63881        0.42088
C         -3.46751        1.08096        0.14480
C         -2.37307        0.23541        0.32743
C         -2.58229       -1.07780        0.78318
C         -3.88497       -1.53237        1.07732
C         -4.96326       -0.67212        0.89456
N         -1.49968       -1.98340        1.00952
C         -0.26225       -2.04468        0.34795
O          0.56264       -2.83163        0.82246
C         -0.00440       -1.28011       -0.86278
C         -0.86303       -1.18399       -2.01516
N         -0.24502       -0.48507       -2.99441
N          0.98242       -0.13200       -2.50277
C          1.18139       -0.59542       -1.19720
C          2.39931       -0.27960       -0.47600
C          2.76403        1.07682       -0.34363
C          3.96611        1.43685        0.24112
Cl         4.39984        3.08591        0.39562
C          4.85468        0.43566        0.72001
O          6.05555        0.71603        1.28411
C          4.51295       -0.90909        0.63146
C          3.27365       -1.26734        0.05970
O          3.04484       -2.58772        0.03198
H         -6.75989        3.38094       -0.44745
H         -5.16462        3.50670        0.30165
H         -5.33064        2.83691       -1.33511
H         -3.29300        2.09788       -0.21186
H         -1.36613        0.60052        0.12769
H         -4.05428       -2.54590        1.43726
H         -5.98351       -1.00878        1.11649
H         -1.62898       -2.67250        1.76539
H         -1.85635       -1.59748       -2.11835
H          1.63047        0.39326       -3.07741
H          2.08763        1.85593       -0.70750
H          6.25187        1.69282        1.34358
H          5.17904       -1.68628        1.01133
H          2.04392       -2.84759       -0.04197
