25
omegapdb_1m5f_04.log	Energy:    -163.0075689
O          0.32836        3.28896        0.40372
C          0.32014        2.14088       -0.33675
O          1.21638        1.98043       -1.12772
C         -0.80090        1.19046       -0.10200
N         -1.94304        1.51091        0.52445
O         -2.75791        0.41012        0.53465
C         -2.08138       -0.64668       -0.12013
C         -0.84288       -0.19733       -0.53089
C          0.21492       -0.93634       -1.25701
C          1.15434       -1.76073       -0.34654
N          0.39085       -2.67805        0.52494
C          2.02638       -0.79191        0.46701
O          1.79064       -0.25869        1.52459
O          3.21965       -0.60280       -0.17162
C         -2.83168       -1.89829       -0.21210
H         -0.42141        3.38925        1.05105
H         -0.25003       -1.63122       -1.99328
H          0.83148       -0.22105       -1.85926
H          1.83053       -2.37529       -1.00836
H         -0.15290       -2.16137        1.21640
H          1.01188       -3.30476        1.03202
H          3.79866        0.08102        0.26774
H         -3.52624       -2.03545        0.63326
H         -3.43577       -1.94229       -1.13533
H         -2.15158       -2.77343       -0.22837
