57
omegacsd_SPIRIL_05.log	Energy:     -34.1129204
C         -2.13788        1.11476        1.39356
C         -2.94510        1.18922        0.08540
C         -3.12366        2.67935       -0.34038
O         -2.27738        3.52556       -0.52183
N         -4.48920        2.91198       -0.53558
C         -5.33218        1.74853       -0.17151
N         -4.35909        0.72903        0.35806
C         -4.70820       -0.65152        0.23216
C         -5.88335       -1.06846       -0.42549
C         -6.24136       -2.41843       -0.42110
C         -5.44303       -3.36710        0.22139
C         -4.27491       -2.95487        0.87384
C         -3.90350       -1.61313        0.88504
C         -2.25959        0.43140       -1.06663
C         -0.77737        0.83823       -1.19113
N          0.00265        0.71119        0.07156
C          0.26110       -0.71147        0.46359
C          1.32301       -1.34252       -0.45822
C          2.67389       -0.72647       -0.27084
C          3.83700       -1.39505       -0.30353
C          5.12254       -0.67586       -0.12557
C          5.36965        0.03727        1.05992
C          6.57775        0.71356        1.24399
C          7.52133        0.65835        0.21465
C          7.31017       -0.03752       -0.97905
C          6.09574       -0.70829       -1.13871
F          8.68081        1.30081        0.37932
C          3.96004       -2.87081       -0.52226
C         -0.66292        1.48748        1.15646
H         -2.21534        0.08868        1.81535
H         -2.58345        1.77896        2.15868
H         -4.89561        3.81866       -0.71574
H         -6.04784        1.99672        0.64942
H         -5.90464        1.39453       -1.06434
H         -6.51818       -0.35360       -0.94366
H         -7.15366       -2.73145       -0.92942
H         -5.72680       -4.41607        0.21881
H         -3.65189       -3.69029        1.38320
H         -3.00429       -1.29664        1.41975
H         -2.78350        0.61919       -2.02227
H         -2.33088       -0.66195       -0.90170
H         -0.70505        1.90782       -1.50838
H         -0.28444        0.23724       -1.98436
H         -0.65587       -1.33866        0.44851
H          0.63790       -0.72220        1.51025
H          1.34985       -2.43702       -0.27400
H          1.02470       -1.22314       -1.52338
H          2.64978        0.35830       -0.11853
H          4.61103        0.06198        1.84270
H          6.77281        1.26662        2.16079
H          8.06496       -0.05677       -1.76274
H          5.89930       -1.25708       -2.05941
H          3.05872       -3.41077       -0.20015
H          4.80853       -3.29447        0.03203
H          4.11592       -3.09790       -1.58576
H         -0.08415        1.37542        2.09586
H         -0.59184        2.56691        0.86754
