61
omegapdb_1v2k_06.log	Energy:     -57.9980258
N          9.79803        1.40271       -1.14101
C          9.46339        0.10107       -1.35613
C          8.39852       -0.53554       -0.71303
C          7.62164        0.19236        0.21965
C          7.96114        1.54852        0.44111
C          9.04471        2.10019       -0.24857
N          6.62850       -0.44969        1.00585
C          5.57448        0.40491        1.62802
C          4.42865        0.72433        0.65317
C          3.80828       -0.57355        0.10505
C          4.89663       -1.47064       -0.51312
C          6.03535       -1.71880        0.48586
C          2.76698       -0.24325       -0.96729
O          2.97019       -0.38826       -2.16439
N          1.54087        0.29100       -0.55032
C          0.47201        0.52227       -1.55805
C         -0.83615       -0.17657       -1.14651
N         -1.30944        0.24780        0.20766
C         -0.28805        0.99317        0.98748
C          1.12550        0.38776        0.87322
S         -2.18305       -0.96651        1.09007
O         -1.69904       -2.27033        0.67937
O         -2.09941       -0.57182        2.48503
C         -3.80111       -0.75745        0.51497
C         -4.57465        0.28661        0.96081
C         -5.91031        0.45151        0.48045
C         -6.42644       -0.48103       -0.46080
C         -5.59957       -1.56363       -0.89833
C         -4.32057       -1.69763       -0.41968
C         -7.76273       -0.31690       -0.94642
C         -8.51228        0.73603       -0.48878
C         -8.01505        1.67932        0.45618
C         -6.73613        1.53359        0.92874
Cl       -10.12359        0.95133       -1.06224
H         10.08564       -0.43744       -2.08113
H          8.18132       -1.57889       -0.92666
H          7.40099        2.15652        1.14572
H          9.33533        3.14623       -0.09415
H          5.19129       -0.14373        2.51808
H          6.02914        1.34522        2.01405
H          3.65874        1.33959        1.15912
H          4.81187        1.34102       -0.18697
H          3.32043       -1.13577        0.93965
H          5.28725       -0.99667       -1.44058
H          4.45797       -2.43111       -0.84468
H          5.66884       -2.29249        1.36713
H          6.83073       -2.34338        0.01949
H          0.81486        0.14137       -2.55335
H          0.31812        1.61898       -1.67056
H         -1.63931        0.09089       -1.87160
H         -0.68959       -1.28429       -1.19965
H         -0.28613        2.04479        0.61360
H         -0.58834        1.04613        2.06356
H          1.85577        1.02964        1.42205
H          1.14942       -0.62118        1.34761
H         -4.18885        1.00517        1.69313
H         -6.00658       -2.27953       -1.61267
H         -3.68693       -2.53415       -0.73977
H         -8.16161       -1.02986       -1.66864
H         -8.65803        2.49622        0.78620
H         -6.32768        2.23899        1.65464
