41
omegacsd_CEJTIU_00.log	Energy:     -45.1475006
C          6.62644       -1.64932        0.16781
N          6.12260       -0.25125        0.05336
C          6.86598        0.66071        0.96963
C          4.69810       -0.09954        0.05548
C          4.11922        1.16849        0.29920
C          2.74922        1.36401        0.16825
C          1.91768        0.29030       -0.20784
C          2.47613       -0.97367       -0.45427
C          3.84881       -1.16370       -0.32069
N          0.51096        0.56371       -0.32009
C         -0.44301       -0.38863       -0.65199
O         -0.25559       -1.56986       -0.88856
N         -1.82241        0.06644       -0.73460
C         -2.31648        1.36348       -0.50109
O         -1.56810        2.27619       -0.19055
C         -3.80538        1.55678       -0.69993
C         -4.64422        0.47912       -0.07505
C         -5.32970       -0.44043       -0.88168
C         -6.10989       -1.43858       -0.29032
C         -6.20674       -1.52439        1.10177
C         -5.52191       -0.60681        1.90584
C         -4.74191        0.39435        1.32229
H          6.35041       -2.15094        1.10802
H          6.24124       -2.24684       -0.67729
H          7.72519       -1.64960        0.08075
H          7.94944        0.51924        0.82529
H          6.63223        0.51175        2.03489
H          6.64388        1.70938        0.70452
H          4.74721        2.01339        0.57904
H          2.32815        2.35099        0.35783
H          1.83859       -1.81515       -0.74983
H          4.25702       -2.15247       -0.52475
H          0.21171        1.54357       -0.13714
H         -2.48430       -0.69539       -0.95647
H         -4.08667        2.55193       -0.27581
H         -4.01178        1.65672       -1.78963
H         -5.26349       -0.37970       -1.96630
H         -6.64283       -2.15202       -0.91821
H         -6.81323       -2.30411        1.55961
H         -5.59557       -0.67291        2.99107
H         -4.20969        1.10616        1.95223
