40
omegapdb_2byh_12.log	Energy:     -90.8132419
O         -6.62702       -2.16707        0.86823
C         -6.54481       -1.12196        0.25388
C         -7.76404       -0.50597       -0.37669
C         -5.24313       -0.41492        0.10202
C         -4.10468       -0.99803        0.69038
C         -2.85499       -0.39535        0.59014
C         -2.72819        0.81789       -0.11058
C         -3.86436        1.41457       -0.70696
C         -5.10535        0.79450       -0.59519
N         -1.48655        1.50238       -0.25392
C         -0.22540        1.06594        0.23783
O         -0.10038       -0.01963        0.77514
C          0.86686        2.01471        0.01146
C          0.74846        3.44597       -0.08795
N          1.97094        4.00861       -0.23217
N          2.86883        2.98074       -0.23531
C          2.25124        1.73550       -0.07254
C          3.01415        0.49819       -0.03870
C          2.41278       -0.73072       -0.39042
C          3.13169       -1.91896       -0.34452
Cl         2.40536       -3.39703       -0.78570
C          4.48037       -1.91716        0.08220
O          5.09324       -3.12787        0.10669
C          5.11757       -0.72306        0.44028
C          4.37020        0.45970        0.36490
O          4.94933        1.66664        0.66724
H         -7.97782        0.48887        0.03237
H         -7.65940       -0.41293       -1.46441
H         -8.65175       -1.13047       -0.18921
H         -4.21623       -1.94377        1.23453
H         -1.97869       -0.86484        1.05287
H         -3.77854        2.35057       -1.25201
H         -5.97330        1.26483       -1.05977
H         -1.52408        2.38195       -0.77558
H         -0.15530        4.03331       -0.03720
H          3.86713        3.17084       -0.28819
H          1.35690       -0.75589       -0.69560
H          6.03410       -3.07487        0.42668
H          6.15058       -0.71362        0.76548
H          5.87125        1.57182        1.02122
