50
omegapdb_1xom_02.log	Energy:    -146.8572236
O         -5.68208       -2.78201       -0.28713
C         -5.53644       -1.43196       -0.04282
O         -6.51348       -0.75827        0.17250
C         -4.06730       -1.06956       -0.10426
C         -3.84887       -0.02675       -1.21529
C         -2.37937        0.39726       -1.27563
C         -1.85896        0.92230        0.09070
C         -2.15228       -0.09983        1.22323
C         -3.62460       -0.51703        1.26265
C         -2.58291        2.16917        0.41007
N         -3.16978        3.13142        0.66113
C         -0.35426        1.17159       -0.00835
C          0.19861        2.44813        0.09605
C          1.58456        2.64025       -0.01012
C          2.42914        1.55498       -0.22803
O          3.80367        1.63375       -0.36159
C          4.41963        2.93231       -0.17926
C          1.87762        0.24391       -0.33557
C          0.49460        0.07064       -0.22199
O          2.54000       -0.92592       -0.59232
C          4.00092       -1.00273       -0.45044
C          4.30552       -2.40072       -1.01083
C          5.21247       -3.08857        0.02082
C          4.98589       -2.36397        1.36180
C          4.40257       -0.97965        1.03223
H         -6.62882       -3.08174       -0.26032
H         -3.47500       -1.99289       -0.34060
H         -4.49909        0.85682       -1.03749
H         -4.15968       -0.43917       -2.19518
H         -1.75260       -0.45721       -1.60100
H         -2.24207        1.17809       -2.05020
H         -1.51230       -0.99454        1.08519
H         -1.85409        0.33189        2.19940
H         -3.77653       -1.27895        2.05209
H         -4.26402        0.34639        1.54670
H         -0.42723        3.32571        0.26050
H          1.98162        3.64937        0.07413
H          5.48248        2.69287       -0.31232
H          4.22450        3.31074        0.82802
H          4.07574        3.62686       -0.95134
H          0.09704       -0.94165       -0.30617
H          4.44586       -0.17977       -1.04468
H          4.77167       -2.34934       -2.00670
H          3.35506       -2.95862       -1.14271
H          6.27094       -3.01553       -0.28527
H          4.98550       -4.16417        0.10182
H          4.28309       -2.93584        1.99352
H          5.92304       -2.28058        1.93524
H          5.13278       -0.17468        1.22171
H          3.52646       -0.75320        1.66638
