25
omegapdb_1m5f_15.log	Energy:    -164.4710548
O          0.99173       -2.31072        0.60492
C          1.93225       -1.71221       -0.20986
O          2.64425       -2.37985       -0.91103
C          1.84906       -0.24352       -0.06004
N          2.88719        0.50766        0.33635
O          2.49040        1.82038        0.33631
C          1.14277        1.88033       -0.08456
C          0.69734        0.59971       -0.33956
C         -0.64103        0.15639       -0.78404
C         -1.62231        0.07751        0.41352
N         -1.32586       -0.96531        1.41946
C         -3.01377       -0.23869       -0.13582
O         -3.43547       -1.23438       -0.66743
O         -3.81780        0.86563        0.01843
C          0.57478        3.22677       -0.14430
H          1.03356       -3.30875        0.55872
H         -0.58137       -0.83274       -1.29134
H         -1.03878        0.85340       -1.55481
H         -1.65401        1.07179        0.94252
H         -1.25443       -1.88679        0.98507
H         -0.42551       -0.78644        1.86478
H         -4.75076        0.71348       -0.29295
H          0.20120        3.46653       -1.15547
H          1.31574        4.00305        0.11858
H         -0.27419        3.34373        0.55245
