61
omegapdb_1v2k_19.log	Energy:     -58.9792917
N         -6.05688       -3.40299        0.54799
C         -6.74209       -2.26397        0.83845
C         -6.49436       -1.03734        0.21681
C         -5.49293       -0.95907       -0.78166
C         -4.77646       -2.14127       -1.08529
C         -5.09196       -3.32259       -0.40884
N         -5.30804        0.23279       -1.52983
C         -4.04121        0.37692       -2.31209
C         -2.86456        0.81693       -1.43223
C         -3.20565        2.10537       -0.67034
C         -4.53782        1.99848        0.08907
C         -5.65343        1.52238       -0.85848
C         -2.05543        2.55309        0.23178
O         -1.45846        3.59292       -0.02006
N         -1.73762        1.88576        1.43564
C         -0.52348        2.35886        2.15336
C          0.71819        1.51596        1.78356
N          0.42135        0.05912        1.65211
C         -0.86854       -0.31981        2.28284
C         -2.07875        0.46659        1.72154
S          0.66812       -0.65965        0.09242
O          0.41568       -2.07462        0.28051
O         -0.12340        0.04878       -0.90128
C          2.34805       -0.37482       -0.19958
C          3.30592       -1.11679        0.44841
C          4.69258       -0.88155        0.19703
C          5.06498        0.12548       -0.73547
C          4.04369        0.87324       -1.40289
C          2.71956        0.62560       -1.14259
C          6.45317        0.36574       -0.98705
C          7.38928       -0.38470       -0.32321
C          7.03702       -1.40045        0.61172
C          5.71038       -1.63993        0.86246
Cl         9.06626       -0.10981       -0.61200
H         -7.51748       -2.35757        1.60808
H         -7.08103       -0.16347        0.48608
H         -3.99427       -2.14334       -1.84078
H         -4.55531       -4.25472       -0.62484
H         -3.80571       -0.58069       -2.82830
H         -4.23495        1.12214       -3.11619
H         -2.59053       -0.00252       -0.72667
H         -1.94331        0.95731       -2.03966
H         -3.31220        2.93083       -1.43158
H         -4.80415        2.98073        0.52488
H         -4.45523        1.30184        0.94454
H         -5.83486        2.27385       -1.65990
H         -6.61477        1.41685       -0.30815
H         -0.72629        2.31045        3.24504
H         -0.34100        3.43332        1.90292
H          1.17202        1.92164        0.85261
H          1.48654        1.61909        2.58538
H         -0.77521       -0.15087        3.38070
H         -1.03207       -1.41811        2.15920
H         -2.45929       -0.03821        0.79463
H         -2.90949        0.45124        2.46300
H          3.02750       -1.90161        1.16226
H          4.33782        1.63717       -2.12315
H          1.93132        1.18557       -1.66247
H          6.74249        1.13770       -1.70087
H          7.82521       -1.96796        1.10814
H          5.40885       -2.41302        1.57181
