34
omegapdb_2f7p_01.log	Energy:    -117.3859358
C         -1.14784       -0.49441        0.78310
N          0.21584       -0.09121        0.32480
C          1.22414       -1.18549        0.49828
C          2.59266       -0.63737        0.17133
C          3.51618       -0.38884        1.19654
C          4.78466        0.11081        0.88725
C          5.13438        0.36829       -0.44193
C          4.21111        0.12687       -1.46471
C          2.94263       -0.37430       -1.16133
C         -1.95363        0.76161        1.26288
O         -1.06865        1.75482        1.75562
C         -2.76594        1.26809        0.03053
O         -2.28444        2.56665       -0.29917
C         -2.50041        0.25499       -1.12540
O         -1.54033        0.85542       -2.00161
C         -1.91953       -0.99970       -0.45905
S         -3.23575       -2.16095       -0.01210
H         -1.12078       -1.26404        1.59096
H          0.52167        0.74816        0.85354
H          1.21063       -1.63125        1.51868
H          0.96532       -2.01354       -0.20162
H          3.25017       -0.58182        2.23410
H          5.50095        0.30123        1.68499
H          6.12243        0.75719       -0.68026
H          4.48064        0.33043       -2.49991
H          2.22136       -0.55492       -1.95676
H         -2.60542        0.50714        2.12436
H         -1.09597        2.56588        1.15417
H         -3.84059        1.40691        0.25855
H         -1.76686        2.52707       -1.16852
H         -3.37873        0.08460       -1.78104
H         -0.61192        0.72098       -1.64404
H         -1.24847       -1.54814       -1.16577
H         -3.90645       -1.42065        0.89487
