34
omegapdb_2f7p_22.log	Energy:    -117.6493570
C         -0.58027        0.44830        0.05040
N          0.06665        0.91314        1.29771
C          1.40227        1.53777        1.09266
C          2.46059        0.69843        0.41305
C          2.63310       -0.65535        0.73211
C          3.64020       -1.39986        0.11214
C          4.48440       -0.79885       -0.82675
C          4.31528        0.55178       -1.14717
C          3.30722        1.29868       -0.53165
C         -0.46303       -1.09329       -0.21761
O         -0.16212       -1.76077        1.00167
C         -1.83659       -1.54831       -0.79866
O         -2.31928       -2.57902        0.06486
C         -2.76199       -0.29447       -0.79309
O         -4.01996       -0.76598       -0.29209
C         -2.09974        0.70481        0.16197
S         -2.52285        2.39186       -0.33660
H         -0.16041        0.98715       -0.83838
H          0.13821        0.12264        1.96237
H          1.24611        2.49129        0.53571
H          1.77720        1.83853        2.10206
H          1.97045       -1.14237        1.45297
H          3.76545       -2.45228        0.36352
H          5.26961       -1.37961       -1.30587
H          4.97007        1.02361       -1.87769
H          3.18457        2.34910       -0.78792
H          0.39132       -1.32793       -0.88641
H         -0.94393       -2.32111        1.29493
H         -1.74831       -2.01165       -1.80166
H         -3.23559       -2.35615        0.40071
H         -2.93343        0.09912       -1.81840
H         -4.56719       -0.02099        0.03900
H         -2.44518        0.52749        1.21063
H         -1.77767        3.05994        0.57620
