66
omegapdb_1z1r_12.log	Energy:    -255.9282161
C          0.01673       -1.03476        0.74269
C         -0.53270       -2.26579       -0.01500
C         -2.03059       -2.35236       -0.00951
C         -2.75939       -2.23552        1.18509
C         -4.14878       -2.11574        1.15709
C         -4.79992       -2.15094       -0.08340
C         -4.10461       -2.39468       -1.27804
C         -2.71541       -2.48714       -1.23046
O         -6.17312       -1.97168       -0.20157
C         -6.68147       -0.72820        0.35851
C         -6.44900        0.43709       -0.60667
C         -5.00281        0.94423       -0.66818
C         -4.51389        1.46464        0.65754
O         -5.15495        1.50516        1.69305
N         -3.18595        1.94581        0.74247
C         -2.20103        2.02343       -0.34556
C         -1.31314        0.74530       -0.45880
O         -0.92675        0.41229       -1.57162
N         -0.89800        0.14258        0.71267
C         -1.28593        3.24469       -0.14368
C          0.06934        3.16897       -0.83157
O          1.10919        3.35045       -0.21670
N          0.08275        2.98350       -2.21299
C          1.39233       -0.60952        0.14891
O          2.16683       -1.82118        0.23385
C          2.08290        0.49777        0.97775
N          3.13740        1.12554        0.14553
S          4.75394        1.08227        0.74166
O          4.70688        0.94172        2.18494
O          5.42174        2.20909        0.12692
C          5.35333       -0.39873        0.06857
C          5.77920       -0.43842       -1.26202
C          6.25809       -1.63511       -1.80462
C          6.31627       -2.78594       -1.01097
C          5.90060       -2.74223        0.32467
C          5.42378       -1.54517        0.86654
H          0.15757       -1.30955        1.82235
H         -0.15571       -2.24644       -1.06299
H         -0.07830       -3.18007        0.42522
H         -2.23921       -2.22139        2.14136
H         -4.71902       -1.99476        2.07534
H         -4.65228       -2.48857       -2.21300
H         -2.15445       -2.63431       -2.15431
H         -6.24972       -0.54121        1.35837
H         -7.75787       -0.96818        0.45420
H         -6.75808        0.12562       -1.62708
H         -7.12137        1.27154       -0.31322
H         -4.93339        1.74196       -1.43867
H         -4.33437        0.12630       -1.02647
H         -2.90231        2.32971        1.64870
H         -2.73295        2.11510       -1.33446
H         -1.38375        0.33911        1.58621
H         -1.80983        4.16809       -0.47794
H         -1.08611        3.41717        0.94076
H          0.98534        2.85449       -2.65890
H         -0.67114        2.48840       -2.67503
H          1.29320       -0.31838       -0.92322
H          3.02697       -1.69585       -0.22529
H          2.49869        0.05600        1.91525
H          1.33967        1.26180        1.30386
H          2.80770        2.02788       -0.25286
H          5.74803        0.46591       -1.87883
H          6.59078       -1.66852       -2.84109
H          6.69036       -3.71962       -1.43345
H          5.95259       -3.63730        0.94350
H          5.11066       -1.50516        1.91716
