66
omegapdb_1z1r_08.log	Energy:    -262.5987387
C         -0.28291       -2.41988        0.90989
C         -0.86682       -3.36000       -0.17296
C         -2.19665       -2.83847       -0.64983
C         -2.28633       -2.16036       -1.87528
C         -3.45512       -1.48373       -2.22777
C         -4.54131       -1.51183       -1.34201
C         -4.50590       -2.26766       -0.15682
C         -3.32831       -2.92865        0.18096
O         -5.73251       -0.85631       -1.60204
C         -5.63692        0.56314       -1.92799
C         -5.35915        1.37542       -0.66631
C         -3.86786        1.58279       -0.38743
C         -3.62859        1.84278        1.08175
O         -4.48519        2.17731        1.88237
N         -2.32334        1.67483        1.58501
C         -1.13306        1.34138        0.79134
C         -0.54770        0.03873        1.39117
O         -0.23197       -0.09720        2.56469
N         -0.44827       -1.00855        0.48274
C         -0.07277        2.44950        0.82546
C         -0.47630        3.57486       -0.09614
O         -1.29765        3.46309       -0.99759
N          0.16367        4.79428        0.10141
C          1.19491       -2.77060        1.24225
O          1.50450       -2.35174        2.56774
C          2.24529       -2.20678        0.24244
N          3.36089       -1.50781        0.92138
S          3.55164        0.17414        0.63453
O          4.02343        0.75410        1.87221
O          2.31653        0.69520        0.03998
C          4.79146        0.23612       -0.56630
C          6.12299        0.00619       -0.20645
C          7.12680        0.05795       -1.17907
C          6.79576        0.34230       -2.50798
C          5.46336        0.57815       -2.86701
C          4.46132        0.52562       -1.89467
H         -0.86695       -2.55797        1.86840
H         -0.97835       -4.38004        0.25041
H         -0.15924       -3.47272       -1.01767
H         -1.43809       -2.14774       -2.55831
H         -3.52605       -0.94791       -3.17063
H         -5.38661       -2.30464        0.48306
H         -3.27741       -3.49508        1.11103
H         -4.89798        0.72058       -2.72828
H         -6.65824        0.74079       -2.31886
H         -5.83852        0.86607        0.20329
H         -5.86775        2.35954       -0.72555
H         -3.28498        0.70156       -0.72921
H         -3.46496        2.44607       -0.97319
H         -2.17192        1.84071        2.58484
H         -1.42874        1.18187       -0.28823
H         -0.56231       -0.84161       -0.51519
H          0.11574        2.78817        1.86403
H          0.91956        2.02833        0.48527
H          0.83827        4.95557        0.82660
H         -0.06699        5.58233       -0.48440
H          1.31304       -3.87976        1.31791
H          1.07321       -1.46677        2.79101
H          1.76549       -1.55325       -0.51953
H          2.69197       -3.06152       -0.32049
H          3.42881       -1.81624        1.91704
H          6.38697       -0.20694        0.83444
H          8.16452       -0.12102       -0.89992
H          7.57858        0.38284       -3.26696
H          5.20854        0.80518       -3.90129
H          3.41928        0.72068       -2.17212
