25
omegapdb_1m5f_02.log	Energy:    -161.7320095
O         -2.20454       -2.74365       -0.55056
C         -1.28675       -1.97378        0.10071
O         -0.29861       -2.46260        0.60013
C         -1.66892       -0.54554        0.06768
N         -2.86932       -0.07333        0.43261
O         -2.85397        1.28989        0.29494
C         -1.58047        1.67668       -0.18387
C         -0.79821        0.55144       -0.33343
C          0.59661        0.45653       -0.81501
C          1.57053       -0.03290        0.27710
N          1.62572        0.80647        1.49782
C          2.98934       -0.10230       -0.31319
O          3.24914       -0.28042       -1.47761
O          4.02860        0.01147        0.56373
C         -1.41945        3.11444       -0.40237
H         -1.96568       -3.71740       -0.53345
H          0.65972       -0.23813       -1.68889
H          0.93747        1.43367       -1.22291
H          1.29148       -1.09203        0.57676
H          1.50453        1.79114        1.27517
H          0.88166        0.54846        2.14309
H          3.74517        0.20355        1.50865
H         -1.20582        3.34105       -1.46273
H         -2.33123        3.67872       -0.13424
H         -0.59318        3.53416        0.19481
