36
omegapdb_1qxw_14.log	Energy:    -105.5085927
C         -4.73262       -0.90651        0.49274
C         -4.10783       -1.45002       -0.77737
C         -3.74731       -0.04708       -0.28523
N         -2.45114        0.25882        0.32297
C         -1.38866        0.46223       -0.70535
C         -0.15393        1.07958       -0.01848
C          0.97010        0.10999        0.46075
N          0.32597       -0.88557        1.36918
C          1.64091       -0.58728       -0.73490
C          3.02176       -1.15965       -0.39640
C          4.07730       -0.06406       -0.18898
C          5.44204       -0.65151        0.16098
O         -0.43412        1.90461        1.10372
O          0.39448        1.97482       -0.99860
H         -4.44863       -1.33080        1.45351
H         -5.78449       -0.62991        0.50173
H         -3.37807       -2.25257       -0.71031
H         -4.71559       -1.56649       -1.66993
H         -4.13241        0.81659       -0.84913
H         -2.15325       -0.48892        0.96973
H         -1.74832        1.16860       -1.49025
H         -1.09653       -0.47159       -1.23222
H          1.73254        0.74082        0.99464
H          0.11737       -0.44837        2.26566
H          0.95415       -1.66360        1.54819
H          0.98598       -1.39687       -1.11478
H          1.72795        0.14338       -1.56995
H          3.34440       -1.83115       -1.21731
H          2.96397       -1.80269        0.50202
H          3.74967        0.62846        0.61200
H          4.15847        0.55521       -1.10436
H          5.81298       -1.31211       -0.63112
H          5.40692       -1.23728        1.08626
H          6.18812        0.13893        0.30221
H         -1.40015        2.11168        1.18487
H          0.77761        2.76623       -0.56405
