36
omegapdb_1qxw_02.log	Energy:    -102.8362689
C         -5.11959       -0.57598        0.18263
C         -4.38999       -1.30784       -0.92555
C         -3.65871       -0.96785        0.36946
N         -2.68028        0.13180        0.31251
C         -1.30502       -0.37467        0.02766
C         -0.34266        0.83251       -0.01466
C          1.13916        0.49286       -0.37180
N          1.88681        1.78524       -0.29562
C          1.74142       -0.51769        0.62197
C          2.96786       -1.25187        0.06654
C          4.27065       -0.45849        0.24000
C          5.46588       -1.19405       -0.35976
O         -0.47481        1.47115        1.24521
O         -0.72476        1.77263       -1.01360
H         -5.37454        0.47411        0.04181
H         -5.88590       -1.08638        0.75924
H         -4.63451       -2.34246       -1.14619
H         -4.13308       -0.76396       -1.83421
H         -3.42165       -1.78916        1.06084
H         -2.67615        0.64434        1.20906
H         -0.93549       -1.11703        0.76964
H         -1.31257       -0.87373       -0.96737
H          1.13935        0.05674       -1.40504
H          1.55773        2.42075       -1.02327
H          2.88436        1.62490       -0.44355
H          1.99400        0.00415        1.56957
H          0.97086       -1.26344        0.90564
H          2.81697       -1.49972       -1.00193
H          3.06761       -2.22866        0.58157
H          4.45011       -0.26350        1.31614
H          4.17171        0.54293       -0.23041
H          5.34113       -1.36400       -1.43513
H          6.39126       -0.62236       -0.22397
H          5.61615       -2.17271        0.11066
H          0.19532        2.19617        1.34122
H         -1.68580        1.99194       -0.94440
