44
omegacsd_CUHNEY10_00.log	Energy:     -28.3230251
Cl         4.34466        2.82260       -0.66431
C          2.69942        2.39474       -0.46988
C          2.19026        1.26847       -1.13675
N          0.90004        0.88232       -1.00039
C          0.07598        1.63432       -0.19778
N         -1.27269        1.19028       -0.12543
C         -2.30913        1.78798        0.68696
O         -2.15983        2.75379        1.38125
C         -3.52874        0.95342        0.40298
N         -4.76920        1.14382        0.87297
C         -5.69783        0.24011        0.43719
C         -5.37282       -0.80719       -0.45089
N         -4.10268       -0.99678       -0.92498
C         -3.19267       -0.11750       -0.48528
C         -1.70660       -0.07904       -0.81406
O         -1.08627       -1.15260       -0.09141
C         -0.26473       -2.02401       -0.84727
O         -0.29491       -2.02430       -2.05486
N          0.37874       -2.92515        0.01535
C          0.53723       -2.56010        1.45332
C          1.77665       -1.67242        1.68137
N          2.99619       -2.37611        1.16062
C          2.85482       -2.66060       -0.30658
C          1.61852       -3.55101       -0.53966
C          4.21457       -1.55026        1.41122
C          0.53040        2.78322        0.49350
C          1.86172        3.16096        0.35010
H          2.81599        0.65539       -1.79973
H         -6.71836        0.37874        0.81697
H         -6.12828       -1.52181       -0.80395
H         -1.43821       -0.09806       -1.90186
H         -0.38245       -2.04881        1.81622
H          0.63496       -3.51556        2.02004
H          1.91506       -1.51037        2.77256
H          1.61604       -0.67258        1.22242
H          2.78150       -1.74118       -0.92745
H          3.76534       -3.20559       -0.63885
H          1.48155       -3.75563       -1.62556
H          1.74145       -4.53261       -0.02566
H          5.10227       -2.10650        1.06823
H          4.33113       -1.40544        2.49793
H          4.21690       -0.56153        0.92881
H         -0.14927        3.36495        1.12693
H          2.24820        4.04205        0.86837
