40
omegapdb_2byh_03.log	Energy:     -95.1468704
O          7.42334        0.36453        1.04515
C          6.55706        0.93903        0.41502
C          6.83399        2.26356       -0.24003
C          5.19509        0.35404        0.26897
C          4.94656       -0.88984        0.87971
C          3.69915       -1.49623        0.78507
C          2.66745       -0.85120        0.06438
C          2.90502        0.39288       -0.54846
C          4.16220        0.98269       -0.44197
N          1.40981       -1.51816       -0.00990
C          0.23833       -1.03578       -0.64766
O          0.19806        0.06606       -1.16698
C         -0.87772       -1.98507       -0.60632
C         -0.79468       -3.39702       -0.86889
N         -2.01845       -3.96570       -0.74896
N         -2.88173       -2.95843       -0.42955
C         -2.23676       -1.72051       -0.33400
C         -2.95079       -0.49725       -0.01163
C         -2.55078        0.73424       -0.56484
C         -3.21995        1.90856       -0.23472
Cl        -2.73035        3.40092       -0.91211
C         -4.30987        1.88653        0.66486
O         -4.99939        2.99114        1.04020
C         -4.74714        0.67633        1.22155
C         -4.06684       -0.49046        0.86404
O         -4.46765       -1.71329        1.33589
H          6.18352        3.05682        0.14886
H          6.69997        2.21817       -1.32803
H          7.87343        2.57694       -0.05458
H          5.75668       -1.37678        1.43505
H          3.52932       -2.45656        1.26535
H          2.10636        0.89681       -1.10438
H          4.33121        1.94769       -0.92323
H          1.35403       -2.42050        0.47334
H          0.08515       -3.95761       -1.14583
H         -3.85820       -3.15628       -0.23105
H         -1.69353        0.76897       -1.26406
H         -4.65728        3.83570        0.62628
H         -5.59220        0.67524        1.90528
H         -5.20683       -1.64281        1.99721
