44
omegacsd_CUHNEY10_08.log	Energy:     -27.5816004
Cl         4.64641        2.87405       -0.48845
C          2.99330        2.47231       -0.30968
C          2.43628        1.45168       -1.09847
N          1.13548        1.09428       -0.98680
C          0.35237        1.76750       -0.08111
N         -1.01253        1.36606       -0.04408
C         -2.05115        1.99238        0.74348
O         -1.87707        2.90605        1.49934
C         -3.30614        1.26237        0.34504
N         -4.55793        1.51887        0.74743
C         -5.51710        0.70901        0.20489
C         -5.20866       -0.31270       -0.71769
N         -3.92597       -0.57166       -1.12112
C         -2.98834        0.21609       -0.57918
C         -1.48271        0.15854       -0.80390
O         -0.99972       -0.97681       -0.05623
C         -0.34904       -1.98603       -0.79434
O         -0.24736       -1.92861       -1.99842
N         -0.03125       -3.05491        0.05593
C          0.96948       -4.02805       -0.48456
C          2.25208       -4.08351        0.37612
N          2.62901       -2.80099        1.03281
C          1.51789       -2.29309        1.89767
C          0.10653       -2.79457        1.51409
C          3.07040       -1.78247        0.03473
C          0.85506        2.80409        0.74021
C          2.19641        3.15484        0.61730
H          3.03182        0.90340       -1.84165
H         -6.54814        0.90314        0.52772
H         -5.98738       -0.95060       -1.15647
H         -1.13204        0.13316       -1.86774
H          1.21203       -3.77897       -1.54391
H          0.46920       -5.02278       -0.50111
H          3.10535       -4.42887       -0.24668
H          2.13612       -4.83977        1.18535
H          1.75691       -2.63274        2.93195
H          1.52914       -1.18307        1.92741
H         -0.66909       -2.06190        1.83532
H         -0.12293       -3.75249        2.03414
H          3.43236       -0.89114        0.57308
H          3.92597       -2.18376       -0.53195
H          2.30045       -1.46313       -0.68458
H          0.20584        3.32305        1.45433
H          2.62116        3.95069        1.23405
