25
omegapdb_1m5f_05.log	Energy:    -159.0812312
O         -2.50340       -2.74959       -0.25563
C         -1.42514       -1.94240       -0.02930
O         -0.35427       -2.47306        0.12611
C         -1.68320       -0.47557       -0.00319
N         -2.86225        0.05706        0.35539
O         -2.76586        1.41908        0.28606
C         -1.45740        1.74688       -0.14084
C         -0.74216        0.58154       -0.33217
C          0.65166        0.44125       -0.80647
C          1.59113       -0.17769        0.24940
N          1.58850        0.48494        1.57511
C          3.03304       -0.14659       -0.28536
O          3.34532       -0.09142       -1.44883
O          4.03217       -0.21914        0.64209
C         -1.20168        3.18056       -0.27744
H         -3.38184       -2.28769       -0.33162
H          1.05087        1.42302       -1.14540
H          0.68399       -0.19729       -1.72426
H          1.31458       -1.27082        0.38736
H          0.80433        0.15997        2.13667
H          1.49749        1.49350        1.48402
H          3.70876       -0.20189        1.59223
H         -0.95624        3.45100       -1.32081
H         -0.35759        3.51199        0.35078
H         -2.07753        3.78936        0.01148
