46
omegacsd_CDBMPI10_06.log	Energy:     -39.8514743
O          2.03271        1.89120        1.30170
C          2.19576        1.10089        0.38857
N          1.19618        0.85403       -0.58769
C         -0.15710        1.49933       -0.48986
C         -1.06324        0.65750        0.45134
N         -1.15647       -0.72869       -0.06807
C          0.13994       -1.43137       -0.31091
C          1.07903       -0.52044       -1.15206
C          0.77945       -1.85067        1.01338
C         -2.35590       -1.36093       -0.40856
O         -2.33388       -2.48120       -0.89739
C         -3.62789       -0.61427       -0.13689
C         -4.19461       -0.64607        1.14327
C         -5.40565        0.01184        1.37684
C         -6.04488        0.69492        0.33655
C         -5.47711        0.71837       -0.94174
C         -4.26708        0.06116       -1.18359
C         -0.09825        2.95375       -0.04242
C          3.51405        0.41451        0.16807
C          4.22488        0.60760       -1.02361
C          5.47310        0.00107       -1.18958
C          6.00741       -0.79421       -0.17002
C          5.29820       -0.97835        1.02164
C          4.05224       -0.36934        1.19667
H         -0.58165        1.46426       -1.53239
H         -0.63746        0.64117        1.48103
H         -2.06794        1.12332        0.53173
H         -0.08357       -2.35873       -0.91654
H          0.68379       -0.43184       -2.18993
H          2.07897       -0.99674       -1.24254
H          0.11715       -2.52833        1.56902
H          1.72415       -2.38105        0.84780
H          0.98706       -0.99682        1.66907
H         -3.69802       -1.18667        1.94884
H         -5.85328       -0.01179        2.36946
H         -6.98922        1.20568        0.52137
H         -5.98034        1.24388       -1.75212
H         -3.82920        0.06478       -2.18151
H          0.62469        3.52662       -0.63823
H         -1.07297        3.44163       -0.14002
H          0.23144        3.05605        1.00592
H          3.80617        1.23206       -1.81365
H          6.03115        0.15129       -2.11259
H          6.98010       -1.26677       -0.30235
H          5.71980       -1.59010        1.81795
H          3.50656       -0.49112        2.13292
