25
omegapdb_1m5f_23.log	Energy:    -158.8019914
O         -3.18480       -1.46977       -0.43292
C         -2.20588       -1.02306        0.41030
O         -1.94487       -1.70265        1.37264
C         -1.55598        0.27071        0.06544
N         -2.09538        1.20314       -0.73224
O         -1.21777        2.25301       -0.82370
C         -0.07601        1.94822       -0.04287
C         -0.25079        0.70920        0.53594
C          0.63776       -0.05907        1.43746
C          1.88949       -0.65401        0.75831
N          2.89726        0.41440        0.48727
C          1.56405       -1.32417       -0.57635
O          0.53637       -1.47910       -1.18075
O          2.73678       -1.85993       -1.07639
C          0.95458        2.98478       -0.05288
H         -3.36179       -0.89247       -1.22393
H          0.05242       -0.89562        1.90222
H          0.95429        0.58433        2.28823
H          2.29211       -1.46776        1.42993
H          3.70003        0.02638       -0.01183
H          3.23982        0.80217        1.36261
H          2.61121       -2.31547       -1.95119
H          1.08819        3.43804        0.94255
H          0.72698        3.79756       -0.76143
H          1.93454        2.55205       -0.34552
