61
omegapdb_1v2k_11.log	Energy:     -56.8160491
N          9.57447       -0.82146       -1.44895
C          9.44159       -0.51475       -0.12973
C          8.28557       -0.78156        0.60906
C          7.18966       -1.40983       -0.02878
C          7.31989       -1.72312       -1.40267
C          8.51577       -1.41851       -2.05969
N          6.05606       -1.83671        0.71389
C          4.78847       -2.08506       -0.03429
C          3.98811       -0.79501       -0.27939
C          3.69129       -0.08034        1.05133
C          4.99590        0.15602        1.83482
C          5.77388       -1.15508        2.01326
C          3.02256        1.27075        0.78051
O          3.61324        2.33683        0.87978
N          1.68267        1.27829        0.37790
C          0.99460        2.58630        0.18934
C         -0.43376        2.52274        0.75293
N         -1.26874        1.47388        0.10043
C         -0.47247        0.34328       -0.46322
C          0.80825        0.07839        0.35150
S         -2.53155        2.04121       -0.94913
O         -2.22496        1.58597       -2.29379
O         -2.69302        3.45369       -0.67304
C         -3.91486        1.16381       -0.38723
C         -4.48551        0.19452       -1.17692
C         -5.63038       -0.52661       -0.72089
C         -6.17114       -0.22589        0.55967
C         -5.55990        0.79339        1.35493
C         -4.46048        1.47225        0.88992
C         -7.31685       -0.94946        1.02161
C         -7.86500       -1.91269        0.21483
C         -7.34100       -2.22605       -1.07281
C         -6.24359       -1.54110       -1.52677
Cl        -9.24391       -2.79602        0.75374
H         10.30870       -0.03206        0.33721
H          8.24047       -0.51299        1.66127
H          6.51140       -2.20481       -1.94524
H          8.64869       -1.65342       -3.12264
H          4.19198       -2.80951        0.56472
H          5.01318       -2.59086       -1.00079
H          4.56168       -0.11883       -0.94839
H          3.04613       -1.02667       -0.81437
H          3.01607       -0.71529        1.67504
H          5.61784        0.90931        1.30181
H          4.77565        0.61208        2.81842
H          5.19846       -1.87335        2.63975
H          6.72865       -0.96779        2.55545
H          0.99010        2.83528       -0.89635
H          1.58391        3.39214        0.69345
H         -0.91640        3.52790        0.66861
H         -0.40551        2.28004        1.84194
H         -0.20460        0.52028       -1.53524
H         -1.11588       -0.56642       -0.43138
H          0.53965       -0.21593        1.39282
H          1.36084       -0.77302       -0.11352
H         -4.07599       -0.03660       -2.16974
H         -5.98574        1.02312        2.33165
H         -3.99840        2.26003        1.49277
H         -7.73404       -0.72178        2.00292
H         -7.82151       -3.00025       -1.67225
H         -5.82078       -1.75589       -2.50998
