46
omegacsd_CDBMPI10_01.log	Energy:     -39.5139930
O          2.67342        1.26690       -1.87447
C          2.37580        0.71247       -0.82844
N          1.42524        1.28901        0.02088
C          0.70764        2.52913       -0.42351
C         -0.64608        2.65885        0.32136
N         -1.33146        1.34477        0.40147
C         -0.58442        0.24990        1.08507
C          0.91282        0.64458        1.24726
C         -1.19013       -0.03924        2.46170
C         -2.52747        1.16156       -0.30302
O         -3.05439        2.11069       -0.86272
C         -3.12294       -0.21535       -0.30407
C         -2.68010       -1.16289       -1.23546
C         -3.27527       -2.42720       -1.26776
C         -4.30833       -2.73946       -0.37722
C         -4.75415       -1.78540        0.54337
C         -4.16532       -0.51770        0.58010
C          1.57766        3.76124       -0.17164
C          3.01393       -0.56697       -0.37121
C          4.14694       -0.52386        0.45018
C          4.76554       -1.71748        0.83371
C          4.25511       -2.94421        0.39586
C          3.12670       -2.98091       -0.43032
C          2.50316       -1.79140       -0.81851
H          0.52005        2.42876       -1.52998
H         -0.50719        3.05976        1.34833
H         -1.29966        3.38766       -0.22029
H         -0.64688       -0.67254        0.44764
H          1.03997        1.35092        2.10013
H          1.50491       -0.26099        1.50357
H         -0.60680       -0.78725        3.00948
H         -1.24919        0.86239        3.08319
H         -2.21276       -0.42919        2.37209
H         -1.88665       -0.91101       -1.93923
H         -2.93866       -3.16702       -1.99267
H         -4.77121       -3.72515       -0.40600
H         -5.56677       -2.02593        1.22741
H         -4.52351        0.23572        1.28198
H          1.06738        4.68042       -0.47996
H          2.50798        3.69589       -0.75815
H          1.86438        3.86675        0.87922
H          4.54840        0.43457        0.77909
H          5.64981       -1.69053        1.46895
H          4.74095       -3.87260        0.69390
H          2.73677       -3.93653       -0.77789
H          1.63351       -1.81522       -1.47454
