44
omegacsd_CUHNEY10_03.log	Energy:     -24.8820478
Cl         4.33986        2.45370       -0.59018
C          2.65640        2.14979       -0.49418
C          2.11627        1.02251       -1.14389
N          0.79810        0.73559       -1.07306
C         -0.01312        1.55824       -0.32703
N         -1.37260        1.14188       -0.25072
C         -2.41069        1.80397        0.50047
O         -2.27933        2.84579        1.07994
C         -3.61366        0.91275        0.33359
N         -4.85018        1.12273        0.80423
C         -5.76025        0.14963        0.49585
C         -5.42077       -0.98502       -0.27013
N         -4.15434       -1.19399       -0.74692
C         -3.26263       -0.24528       -0.43260
C         -1.78845       -0.19773       -0.80805
O         -1.10747       -1.18782       -0.02363
C         -0.20845       -2.02387       -0.73423
O         -0.29245       -2.15508       -1.93183
N          0.56656       -2.77031        0.17116
C          1.81163       -3.36143       -0.41886
C          3.09707       -2.88620        0.29059
N          2.97273       -1.43378        0.63222
C          1.88707       -1.19792        1.64235
C          0.75605       -2.24401        1.54886
C          4.27218       -0.88928        1.12332
C          0.46558        2.71771        0.32067
C          1.82560        3.01117        0.22703
H          2.74275        0.32076       -1.71426
H         -6.77733        0.30510        0.87768
H         -6.16065       -1.75648       -0.52089
H         -1.55604       -0.29963       -1.90010
H          1.86502       -3.12661       -1.50925
H          1.71160       -4.46681       -0.32860
H          3.30806       -3.52660        1.17337
H          3.95680       -3.00915       -0.40459
H          2.25784       -1.16265        2.68846
H          1.48164       -0.18521        1.41189
H         -0.20223       -1.80348        1.91167
H          0.97453       -3.12073        2.19998
H          4.16121        0.19712        1.28816
H          5.03487       -1.01011        0.33648
H          4.65318       -1.34552        2.04812
H         -0.21008        3.37069        0.88246
H          2.23424        3.89834        0.71574
