45
omegacsd_SEYMIS_02.log	Energy:     -71.5344126
O         -4.16659        2.69652        0.72026
N         -4.62682        1.39201        0.87175
C         -3.70234        0.55149        0.38065
C         -2.56948        1.33070       -0.10619
C         -1.35646        0.79739       -0.75343
O         -1.32120        0.32254       -1.87495
N         -0.21199        0.91362        0.05146
C          1.07637        0.48746       -0.36004
C          1.41739       -0.06917       -1.61877
N          2.77308       -0.32878       -1.60402
C          3.51864       -0.91060       -2.72343
C          3.30403        0.04996       -0.36367
C          2.25090        0.56179        0.42493
C          4.71150       -0.08691       -0.00338
O          5.61995       -0.53941       -0.67505
O          4.92541        0.39770        1.26517
C          6.28567        0.30422        1.80166
C          6.55232       -1.10796        2.27765
C         -2.90727        2.64832        0.11558
C         -2.27522        3.94262       -0.14173
C         -3.85319       -0.90726        0.36813
C         -3.45858       -1.64727       -0.75816
C         -3.61280       -3.03541       -0.76282
C         -4.15901       -3.68739        0.34769
C         -4.55725       -2.94947        1.46749
C         -4.40948       -1.56071        1.48116
H         -0.29209        1.23893        1.01434
H          0.75746       -0.26742       -2.45279
H          3.12250       -1.90853       -2.98467
H          4.59712       -1.03227       -2.46808
H          3.45736       -0.26366       -3.61706
H          2.35675        0.92776        1.42781
H          6.99656        0.63363        1.02294
H          6.22851        1.04085        2.62387
H          7.49420       -1.17367        2.83441
H          5.74890       -1.47150        2.93160
H          6.61969       -1.80635        1.42957
H         -1.21998        3.95981        0.18064
H         -2.27981        4.17971       -1.22298
H         -2.79316        4.77272        0.36958
H         -3.03103       -1.13836       -1.62960
H         -3.30593       -3.60930       -1.63639
H         -4.27623       -4.77009        0.33993
H         -4.98660       -3.45691        2.32999
H         -4.72928       -0.98289        2.34926
