39
omegacsd_GALSEM_07.log	Energy:    -240.4443313
S          2.41012       -0.87830       -1.04302
O          1.25026       -1.69694       -1.40608
O          3.59665       -0.87095       -1.86044
N          2.79998       -1.53528        0.50772
C          3.85321       -1.25191        1.41949
O          3.92151       -1.95245        2.41008
C          4.78692       -0.09677        1.14908
C          5.87024       -0.47846        0.14935
C          1.88473        0.70762       -0.75233
C          0.57718        1.02560       -0.30452
N         -0.37422        0.02910       -0.17851
C         -1.66909        0.21471        0.42022
C         -2.79913       -0.23822       -0.28532
C         -4.05795       -0.11923        0.30988
C         -4.19722        0.44399        1.58660
C         -3.06385        0.88612        2.27610
C         -1.79595        0.77251        1.70437
C         -5.30016       -0.58802       -0.40699
F         -5.12102       -1.13200       -1.62032
F         -5.99397       -1.52440        0.26223
F         -6.19923        0.38729       -0.62575
C          0.27821        2.39345       -0.01552
C          1.24828        3.35500       -0.22817
N          2.50145        3.06016       -0.72517
C          2.78590        1.77746       -0.98755
H          2.24216       -2.36707        0.80158
H          5.26354        0.18178        2.12003
H          4.24523        0.81252        0.82966
H          6.44232       -1.35346        0.48551
H          5.45860       -0.72428       -0.84585
H          6.58387        0.34240        0.00872
H         -0.21189       -0.90951       -0.63408
H         -2.67891       -0.67278       -1.28136
H         -5.18221        0.53777        2.04966
H         -3.17127        1.31709        3.27369
H         -0.91240        1.10023        2.25498
H         -0.71302        2.67999        0.33043
H          1.06663        4.41915       -0.02340
H          3.78773        1.57274       -1.41155
