44
omegacsd_CUHNEY10_13.log	Energy:     -27.5816005
Cl        -4.64701       -2.87330       -0.48826
C         -2.99381       -2.47184       -0.30963
C         -2.43666       -1.45130       -1.09841
N         -1.13578       -1.09412       -0.98676
C         -0.35274       -1.76753       -0.08117
N          1.01226       -1.36642       -0.04430
C          2.05083       -1.99291        0.74322
O          1.87665       -2.90673        1.49888
C          3.30584       -1.26291        0.34492
N          4.55763       -1.51957        0.74732
C          5.51684       -0.70969        0.20495
C          5.20851        0.31223       -0.71747
N          3.92586        0.57133       -1.12090
C          2.98816       -0.21647       -0.57913
C          1.48252       -0.15881       -0.80389
O          0.99950        0.97643       -0.05612
C          0.34954        1.98613       -0.79424
O          0.24816        1.92898       -1.99836
N          0.03195        3.05492        0.05614
C         -0.10601        2.79448        1.51427
C         -1.51748        2.29302        1.89752
N         -2.62841        2.80125        1.03259
C         -2.25119        4.08389        0.37630
C         -0.96845        4.02846       -0.48423
C         -3.06982        1.78304        0.03421
C         -0.85557       -2.80411        0.74010
C         -2.19698       -3.15458        0.61727
H         -3.03214       -0.90290       -1.84154
H          6.54788       -0.90391        0.52776
H          5.98729        0.95014       -1.15609
H          1.13194       -0.13331       -1.86777
H          0.12337        3.75232        2.03446
H          0.66954        2.06176        1.83554
H         -1.52885        1.18298        1.92698
H         -1.75661        2.63238        2.93185
H         -2.13519        4.83993        1.18571
H         -3.10434        4.42955       -0.24650
H         -0.46801        5.02310       -0.50038
H         -1.21084        3.77979       -1.54370
H         -3.43165        0.89150        0.57227
H         -3.92548        2.18449       -0.53220
H         -2.29993        1.46401       -0.68530
H         -0.20637       -3.32325        1.45410
H         -2.62186       -3.95038        1.23399
