39
omegacsd_GALSEM_00.log	Energy:    -240.3509301
S         -2.35658       -0.44057        1.03736
O         -1.23165       -1.21626        1.56485
O         -3.42030       -0.00663        1.90996
N         -3.07343       -1.48796       -0.12980
C         -4.43563       -1.56021       -0.56062
O         -4.71649       -2.46154       -1.32088
C         -5.37739       -0.50469       -0.04102
C         -6.76261       -0.65764       -0.65370
C         -1.74415        0.86162        0.13741
C         -0.36490        1.13723       -0.04828
N          0.59916        0.34679        0.54217
C          2.01353        0.61768        0.48768
C          2.86516       -0.40323        0.02927
C          4.24481       -0.17786        0.02213
C          4.77331        1.04452        0.46170
C          3.91298        2.04822        0.91775
C          2.53265        1.84364        0.93827
C          5.19975       -1.24020       -0.46255
F          5.94367       -0.85975       -1.51577
F          6.10607       -1.61768        0.45505
F          4.65221       -2.39792       -0.86317
C         -0.00568        2.25205       -0.87371
C         -0.99872        3.03877       -1.42178
N         -2.34314        2.80233       -1.21122
C         -2.67865        1.74756       -0.45970
H         -2.49592       -2.27014       -0.49679
H         -4.98208        0.51905       -0.24100
H         -5.43885       -0.56853        1.07604
H         -7.18033       -1.65563       -0.45686
H         -6.73929       -0.53945       -1.74542
H         -7.46035        0.08356       -0.24729
H          0.32421       -0.51351        1.09450
H          2.44042       -1.35086       -0.31164
H          5.85173        1.21967        0.45436
H          4.32533        2.99704        1.26704
H          1.86465        2.62257        1.31099
H          1.04072        2.46279       -1.08557
H         -0.77236        3.90295       -2.06110
H         -3.76737        1.58050       -0.31658
