25
omegapdb_1m5f_07.log	Energy:    -162.3266401
O          3.51278       -1.68703        0.27044
C          2.20675       -1.39162        0.00334
O          1.46668       -2.31361       -0.24422
C          1.80945        0.03957        0.03902
N          2.56191        1.03886        0.52641
O          1.85310        2.20563        0.42374
C          0.59503        1.91370       -0.15825
C          0.53565        0.56076       -0.42185
C         -0.56386       -0.23008       -1.01711
C         -1.45607       -0.84808        0.08436
N         -1.83307       -2.26436       -0.14498
C         -2.74604       -0.02755        0.24932
O         -2.84927        1.15842        0.03694
O         -3.84377       -0.68471        0.71690
C         -0.30782        3.04871       -0.31731
H          4.09419       -0.90811        0.49111
H         -1.16962        0.40484       -1.70244
H         -0.13429       -1.03642       -1.65634
H         -0.91925       -0.78959        1.07635
H         -1.05404       -2.88012        0.10359
H         -2.04300       -2.43835       -1.12657
H         -3.70485       -1.67586        0.83827
H         -0.09090        3.86998        0.38494
H         -0.26866        3.47127       -1.33578
H         -1.36611        2.73882       -0.14287
