24
omegapdb_1gs5_07.log	Energy:    -238.0826219
C          0.85216        0.72889       -0.99842
C          1.11142        1.81088        0.07832
O          1.34862        2.95404       -0.22948
O          1.04009        1.49996        1.38947
C         -0.64221        0.38428       -1.11862
C         -1.37846        0.14442        0.19789
C         -2.75140       -0.39638       -0.05826
O         -3.19699       -0.97520       -1.02155
O         -3.55460       -0.16391        1.03366
N          1.73693       -0.44981       -0.86885
C          1.75925       -1.34827        0.19716
O          1.10909       -1.14716        1.22126
C          2.64101       -2.54433        0.01691
H          1.14812        1.22483       -1.97649
H          0.87705        0.51164        1.61180
H         -1.14624        1.21103       -1.66921
H         -0.76012       -0.50983       -1.77388
H         -1.43703        1.07353        0.81243
H         -0.82709       -0.58636        0.84731
H         -4.47506       -0.52476        0.91989
H          2.30835       -0.63596       -1.69315
H          2.34816       -3.16719       -0.84020
H          3.70065       -2.27532       -0.10543
H          2.58444       -3.19169        0.91222
