24
omegapdb_1gs5_18.log	Energy:    -236.5327967
C          0.45614        0.53833        0.01147
C          0.49885        2.06432       -0.02680
O          1.33012        2.83686        0.37276
O         -0.65725        2.50795       -0.62494
C         -0.54102        0.06826        1.09662
C         -1.29770       -1.17926        0.65140
C         -2.65114       -0.93383        0.03389
O         -3.58939       -1.68769        0.09261
O         -2.85966        0.23225       -0.66718
N          1.82288        0.03798        0.24743
C          2.20957       -1.20520       -0.28686
O          1.40627       -1.86568       -0.92198
C          3.62572       -1.60047       -0.00761
H          0.11296        0.16362       -1.00500
H         -0.71652        3.50091       -0.69182
H          0.00416       -0.14675        2.04046
H         -1.25243        0.87956        1.36010
H         -1.43816       -1.87061        1.51463
H         -0.67919       -1.78671       -0.06479
H         -2.09745        0.85752       -0.73077
H          2.43629        0.60605        0.82850
H          3.82338       -1.73601        1.06483
H          3.85067       -2.56452       -0.49805
H          4.35298       -0.87130       -0.39299
