40
omegapdb_2byh_11.log	Energy:     -91.2718169
O          7.56447        0.37688       -0.41997
C          6.61774        0.92566        0.10952
C          6.79652        2.22379        0.84658
C          5.25207        0.33520        0.04768
C          4.13136        0.92900        0.64708
C          2.87451        0.33572        0.55969
C          2.72536       -0.87666       -0.13887
C          3.84668       -1.48662       -0.74831
C          5.09235       -0.87748       -0.64931
N          1.47315       -1.54546       -0.26580
C          0.22441       -1.09294        0.24034
O          0.11947       -0.00535        0.77924
C         -0.88289       -2.02717        0.02746
C         -0.78462       -3.46080       -0.05949
N         -2.01543       -4.00744       -0.19393
N         -2.89891       -2.96730       -0.20300
C         -2.26351       -1.72939       -0.05387
C         -3.00840       -0.48081       -0.02830
C         -2.38874        0.73676       -0.38688
C         -3.08994        1.93591       -0.34850
Cl        -2.34087        3.40060       -0.79752
C         -4.43913        1.95675        0.07557
O         -5.03399        3.17668        0.09220
C         -5.09435        0.77438        0.43982
C         -4.36444       -0.41981        0.37304
O         -4.96154       -1.61585        0.68278
H          6.19698        3.03040        0.40652
H          7.84894        2.54639        0.81225
H          6.52044        2.13509        1.90470
H          4.23047        1.86921        1.19268
H          2.00765        0.81264        1.03159
H          3.74697       -2.42222       -1.29245
H          5.97084       -1.33778       -1.11631
H          1.49366       -2.42592       -0.78770
H          0.11131       -4.06022       -0.00705
H         -3.89988       -3.14402       -0.25201
H         -1.33250        0.74441       -0.69161
H         -5.97707        3.13888        0.40784
H         -6.12808        0.78203        0.76289
H         -5.88362       -1.50552        1.03200
