45
omegacsd_SEYMIS_05.log	Energy:     -71.2427762
O         -4.43833        2.64957       -0.22870
N         -4.74456        1.30946       -0.00178
C         -3.59786        0.61898        0.08240
C         -2.47557        1.52711       -0.10404
C         -1.02298        1.28901       -0.09333
O         -0.22025        2.15782        0.21338
N         -0.61875        0.00941       -0.50175
C          0.73682       -0.40223       -0.54223
C          1.15313       -1.70484       -0.92846
N          2.53267       -1.73840       -0.85023
C          3.35061       -2.90996       -1.17336
C          3.00231       -0.49055       -0.42383
C          1.88841        0.35432       -0.22786
C          4.41608       -0.17927       -0.23129
O          5.37258       -0.91866       -0.38206
O          4.56802        1.12878        0.15194
C          5.92863        1.60114        0.42162
C          6.37035        1.13271        1.79189
C         -3.04985        2.77595       -0.27851
C         -2.51885        4.11980       -0.49259
C         -3.55373       -0.82427        0.34867
C         -2.78307       -1.31294        1.41666
C         -2.74683       -2.68541        1.67153
C         -3.47699       -3.56948        0.86920
C         -4.24985       -3.08078       -0.18885
C         -4.29457       -1.70872       -0.45071
H         -1.31121       -0.68883       -0.77472
H          0.55234       -2.54011       -1.23269
H          4.43423       -2.69695       -1.01046
H          3.22584       -3.20052       -2.23162
H          3.08177       -3.76978       -0.53495
H          1.91870        1.38311        0.10080
H          6.59331        1.24746       -0.38629
H          5.77531        2.69458        0.36039
H          7.30946        1.60863        2.09624
H          6.52902        0.04397        1.80716
H          5.61516        1.35984        2.55627
H         -1.45281        4.16845       -0.17182
H         -2.54545        4.41199       -1.55661
H         -3.07134        4.89018        0.06979
H         -2.21902       -0.62149        2.04494
H         -2.15123       -3.06632        2.50086
H         -3.44797       -4.63921        1.07340
H         -4.82544       -3.76878       -0.80724
H         -4.90952       -1.32285       -1.26509
