36
omegapdb_1qxw_17.log	Energy:    -104.6859894
C          4.16545       -0.71467       -1.19962
C          4.74910       -0.89033        0.18877
C          3.26842       -1.15295       -0.03929
N          2.29204       -0.25505        0.57868
C          1.04069       -0.15795       -0.23493
C          0.08095        0.83834        0.45258
C         -1.29955        1.09783       -0.22802
N         -1.15417        2.28334       -1.11377
C         -1.87802       -0.14182       -0.93765
C         -2.31226       -1.22707        0.05724
C         -3.71580       -0.99303        0.63360
C         -4.82997       -1.29124       -0.36718
O         -0.27593        0.41426        1.76292
O          0.85283        2.02334        0.60968
H          4.06958        0.28581       -1.61252
H          4.41680       -1.42396       -1.98243
H          5.41034       -1.72895        0.39503
H          5.06890       -0.01478        0.75047
H          2.91025       -2.19388       -0.02404
H          2.68227        0.69167        0.71255
H          0.56694       -1.16481       -0.26793
H          1.22108        0.16569       -1.28195
H         -2.00817        1.38958        0.60321
H         -2.05025        2.54788       -1.51231
H         -0.51903        2.09712       -1.88436
H         -1.15325       -0.55886       -1.65987
H         -2.75174        0.16209       -1.54984
H         -1.58443       -1.27374        0.89911
H         -2.27134       -2.21717       -0.43447
H         -3.80366        0.04985        0.99732
H         -3.84647       -1.62990        1.53189
H         -4.80693       -2.33658       -0.69539
H         -5.81651       -1.10756        0.07310
H         -4.74794       -0.66569       -1.26277
H          0.52815        0.19962        2.29622
H          0.29103        2.82510        0.72082
