45
omegacsd_FABSOQ10_10.log	Energy:     -96.9133134
S          0.34194        0.59312       -1.50990
C          1.10092        1.25073       -0.08962
C          0.34540        1.01470        1.01933
C         -0.87484        0.30307        0.72431
C         -1.02886        0.01649       -0.60110
C         -2.11282       -0.73009       -1.30542
O         -1.72703       -2.11118       -1.42296
C         -3.46738       -0.60691       -0.63506
C         -3.93631        0.63749       -0.20184
C         -5.20024        0.76318        0.38382
C         -5.98787       -0.38603        0.52128
O         -7.24624       -0.43400        1.07797
C         -7.82477        0.80468        1.55459
C         -5.54075       -1.65027        0.08090
C         -4.28314       -1.74561       -0.49959
C          2.41285        1.93990       -0.25920
O          2.57438        2.23652       -1.66572
C          3.57419        1.04831        0.11422
C          4.20110        0.25755       -0.85575
C          5.27502       -0.56995       -0.51438
C          5.70172       -0.59165        0.81866
O          6.73743       -1.34995        1.31690
C          7.45290       -2.20775        0.39530
C          5.08194        0.19676        1.81260
C          4.01996        1.01433        1.44795
H          0.60382        1.30971        2.02628
H         -1.58472        0.04138        1.49909
H         -2.20425       -0.43337       -2.38422
H         -1.44960       -2.47030       -0.55269
H         -3.31299        1.52600       -0.31762
H         -5.54794        1.73475        0.71557
H         -7.94528        1.51091        0.72824
H         -7.21852        1.22087        2.36396
H         -8.80054        0.46670        1.92794
H         -6.18575       -2.51797        0.19777
H         -3.91845       -2.71030       -0.86461
H          2.44167        2.90187        0.30871
H          1.99953        2.98593       -1.92398
H          3.84795        0.29795       -1.89073
H          5.75304       -1.17521       -1.27652
H          6.77802       -2.95719       -0.02807
H          7.93873       -1.60983       -0.38101
H          8.19573       -2.67501        1.05493
H          5.44486        0.14969        2.83622
H          3.53116        1.62874        2.20368
