61
omegapdb_1v2k_01.log	Energy:     -58.9964872
N         -9.35428        1.32085       -0.70846
C         -8.26981        2.10318       -0.45628
C         -7.06186        1.60746        0.04140
C         -6.94531        0.22301        0.31615
C         -8.07103       -0.59556        0.05306
C         -9.23711       -0.00953       -0.44503
N         -5.79289       -0.30342        0.94974
C         -5.52953       -1.76751        0.83150
C         -4.86741       -2.12812       -0.50980
C         -3.58721       -1.31098       -0.76059
C         -3.81944        0.19418       -0.52141
C         -4.51543        0.45673        0.82617
C         -2.45470       -1.78127        0.15679
O         -2.62997       -2.19545        1.29182
N         -1.14374       -1.80610       -0.37893
C         -0.01375       -1.92901        0.58492
C          0.51865       -0.53891        1.00009
N          0.86372        0.26442       -0.20932
C         -0.27254        0.39251       -1.16519
C         -0.75395       -1.01585       -1.57475
S          1.72801        1.73770        0.09564
O          1.25721        2.28827        1.35004
O          1.60926        2.50977       -1.12634
C          3.35476        1.18419        0.29595
C          4.10285        0.79677       -0.78908
C          5.44650        0.34277       -0.61409
C          5.99716        0.30184        0.69627
C          5.19611        0.72177        1.80510
C          3.90895        1.15382        1.60729
C          7.34136       -0.15557        0.87548
C          8.06525       -0.54070       -0.22349
C          7.53338       -0.50382       -1.54475
C          6.24642       -0.06827       -1.72985
Cl         9.68545       -1.09555       -0.02833
H         -8.39269        3.17133       -0.67205
H         -6.23481        2.28539        0.23095
H         -8.04113       -1.66327        0.25108
H        -10.12706       -0.61576       -0.65223
H         -6.47143       -2.33849        0.97397
H         -4.84956       -2.05204        1.67604
H         -5.57906       -1.94971       -1.34015
H         -4.63491       -3.21091       -0.52456
H         -3.29113       -1.46183       -1.83148
H         -4.44275        0.59825       -1.34481
H         -2.85796        0.74953       -0.56258
H         -4.70196        1.54374        0.96767
H         -3.86005        0.13339        1.67091
H          0.78872       -2.52716        0.10014
H         -0.35550       -2.49140        1.48693
H         -0.23168       -0.02268        1.64424
H          1.43674       -0.67152        1.61490
H          0.07976        0.95372       -2.06461
H         -1.13065        0.96742       -0.73513
H          0.06789       -1.56479       -2.09255
H         -1.59737       -0.94903       -2.29567
H          3.69000        0.83302       -1.80384
H          5.62970        0.69696        2.80508
H          3.29481        1.49208        2.45153
H          7.76675       -0.18866        1.87901
H          8.15711       -0.81986       -2.38189
H          5.81192       -0.02646       -2.73024
