40
omegapdb_2byh_07.log	Energy:     -91.8248882
O         -6.73993        0.15678        0.53070
C         -5.89201        0.83538       -0.01369
C         -6.23631        2.18518       -0.58103
C         -4.48683        0.35738       -0.14383
C         -3.45836        1.14328       -0.68465
C         -2.16075        0.64902       -0.78115
C         -1.87794       -0.66159       -0.33050
C         -2.90117       -1.45901        0.21239
C         -4.19086       -0.94428        0.30251
N         -0.52978       -1.11169       -0.44939
C         -0.04042       -2.39028       -0.08378
O         -0.75842       -3.25933        0.37002
C          1.40291       -2.56458       -0.30283
C          1.99806       -3.81615       -0.68852
N          3.33882       -3.66836       -0.82495
N          3.61865       -2.36540       -0.52347
C          2.46556       -1.64725       -0.20308
C          2.49341       -0.24993        0.18710
C          2.91492        0.73722       -0.72775
C          2.94413        2.07201       -0.35841
Cl         3.44689        3.27635       -1.45586
C          2.55127        2.45329        0.95365
O          2.61668        3.78252        1.21669
C          2.12924        1.50409        1.88273
C          2.10285        0.15423        1.48715
O          1.68641       -0.70413        2.45000
H         -6.02387        2.24486       -1.65544
H         -7.30978        2.39549       -0.45073
H         -5.68820        2.99175       -0.07929
H         -3.66463        2.15550       -1.03591
H         -1.37716        1.27312       -1.20291
H         -2.68950       -2.47706        0.55974
H         -4.99736       -1.55458        0.72698
H          0.12925       -0.44387       -0.86403
H          1.47949       -4.75266       -0.85096
H          4.57148       -2.02438       -0.55322
H          3.21461        0.44443       -1.73885
H          2.33079        4.00181        2.14758
H          1.81942        1.76702        2.89232
H          1.63006       -1.65604        2.14181
