36
omegapdb_1qxw_28.log	Energy:    -104.2956055
C          4.04136       -2.07078       -0.42033
C          4.60565       -0.66629       -0.33302
C          3.32997       -1.02971        0.42989
N          2.00629       -0.56507        0.00974
C          1.74736        0.83453        0.45510
C          0.35147        1.28143       -0.03094
C         -0.82833        0.26628        0.14984
N         -0.92965       -0.20179        1.54995
C         -2.15667        0.89860       -0.31618
C         -3.16887       -0.14100       -0.81818
C         -3.80355       -0.95205        0.31898
C         -4.83465       -1.94902       -0.20486
O          0.15732        2.50813        0.67575
O          0.36306        1.61157       -1.41568
H          4.55799       -2.89254        0.07162
H          3.59686       -2.41484       -1.35207
H          5.52670       -0.48969        0.21577
H          4.55656       -0.01739       -1.20254
H          3.38632       -1.11688        1.52605
H          1.89634       -0.62599       -1.01225
H          2.51039        1.56594        0.10887
H          1.77866        0.87758        1.56828
H         -0.59880       -0.62299       -0.50090
H         -0.97131        0.57697        2.20040
H         -0.12628       -0.77775        1.79576
H         -1.94355        1.60529       -1.14721
H         -2.60973        1.49098        0.50135
H         -3.96207        0.37919       -1.39069
H         -2.68121       -0.82563       -1.53921
H         -4.27381       -0.27062        1.05297
H         -3.00931       -1.48512        0.88357
H         -5.65287       -1.44748       -0.73257
H         -4.38417       -2.66584       -0.90036
H         -5.27640       -2.52446        0.61627
H         -0.70667        2.91759        0.46604
H          0.98455        2.34210       -1.60940
