45
omegacsd_SEYMIS_09.log	Energy:     -70.2719036
O         -1.31724        0.71656        2.74314
N         -2.39244       -0.07833        2.35573
C         -2.65547        0.15763        1.05996
C         -1.70047        1.13865        0.55659
C         -1.64864        1.69632       -0.80099
O         -2.54976        2.32603       -1.33235
N         -0.46296        1.52169       -1.53674
C          0.65251        0.74642       -1.13551
C          0.61112       -0.54250       -0.54219
N          1.91356       -0.94325       -0.32539
C          2.30733       -2.22364        0.26845
C          2.78666        0.05227       -0.77573
C          2.00865        1.11758       -1.28331
C          4.24728        0.03619       -0.74506
O          5.00117        0.91275       -1.10070
O          4.72828       -1.16147       -0.24188
C          6.18110       -1.30930       -0.12810
C          6.67470       -0.58713        1.10726
C         -0.89994        1.45805        1.63471
C          0.23099        2.35664        1.86237
C         -3.73058       -0.51576        0.32326
C         -3.97208       -1.88366        0.54302
C         -4.99752       -2.52815       -0.15146
C         -5.78809       -1.81429       -1.05907
C         -5.55389       -0.45211       -1.27036
C         -4.52894        0.20131       -0.58144
H         -0.40599        1.96579       -2.45810
H         -0.25550       -1.12943       -0.28907
H          3.18014       -2.09162        0.94459
H          2.61972       -2.93826       -0.51825
H          1.48202       -2.67178        0.84678
H          2.39906        2.02559       -1.70508
H          6.64640       -0.93051       -1.05645
H          6.27263       -2.40821       -0.06107
H          7.73451       -0.79633        1.29715
H          6.11054       -0.87605        2.00227
H          6.57208        0.50367        0.99602
H          0.61956        2.29576        2.89288
H         -0.04606        3.41109        1.68017
H          1.07163        2.12754        1.17744
H         -3.36543       -2.43571        1.26120
H         -5.18474       -3.58718        0.01777
H         -6.58766       -2.31967       -1.59873
H         -6.17077        0.10617       -1.97390
H         -4.34714        1.27032       -0.75093
