39
omegacsd_GALSEM_11.log	Energy:    -244.2169819
S         -2.86775        0.78399       -1.25874
O         -3.95532        1.67839       -1.59176
O         -2.07215        0.16755       -2.30409
N         -3.74769       -0.52183       -0.47646
C         -3.12470       -1.66710        0.03909
O         -1.90465       -1.73540        0.01223
C         -4.01401       -2.75580        0.59952
C         -4.66806       -2.32662        1.90603
C         -1.87823        1.44018       -0.06331
C         -0.55369        1.00285        0.20491
N          0.06405        0.09003       -0.61961
C          1.30835       -0.56430       -0.28691
C          2.51727        0.14503       -0.35470
C          3.70897       -0.53417       -0.07764
C          3.69619       -1.89766        0.25020
C          2.48142       -2.58964        0.30704
C          1.28077       -1.93089        0.04391
C          5.03449        0.17990       -0.12840
F          4.99871        1.48780       -0.42868
F          5.89656       -0.32784       -1.02591
F          5.71706        0.14255        1.03017
C          0.13168        1.58121        1.32493
C         -0.48525        2.57525        2.05369
N         -1.75084        3.05075        1.75885
C         -2.40473        2.49264        0.73464
H         -4.77582       -0.46785       -0.45278
H         -4.77976       -3.05700       -0.14513
H         -3.39151       -3.66446        0.76596
H         -5.25610       -3.14811        2.33713
H         -3.92013       -2.03745        2.65742
H         -5.34749       -1.47604        1.77418
H         -0.48367       -0.38301       -1.38328
H          2.50852        1.20251       -0.63016
H          4.62807       -2.42687        0.46134
H          2.47382       -3.65085        0.56147
H          0.31958       -2.45919        0.09515
H          1.12553        1.23219        1.59635
H         -0.00091        3.05230        2.91610
H         -3.41144        2.89514        0.51739
