44
omegacsd_CUHNEY10_10.log	Energy:     -27.5815960
Cl        -4.64616        2.87431        0.48840
C         -2.99305        2.47255        0.30966
C         -2.43609        1.45181        1.09836
N         -1.13531        1.09438        0.98670
C         -0.35211        1.76766        0.08112
N          1.01273        1.36609        0.04408
C          2.05150        1.99244       -0.74330
O          1.87756        2.90636       -1.49890
C          3.30634        1.26216       -0.34497
N          4.55818        1.51853       -0.74735
C          5.51721        0.70839       -0.20501
C          5.20862       -0.31348        0.71736
N          3.92589       -0.57231        1.12074
C          2.98838        0.21574        0.57903
C          1.48274        0.15844        0.80378
O          0.99948       -0.97681        0.05622
C          0.34880       -1.98597        0.79450
O          0.24746       -1.92851        1.99861
N          0.03065       -3.05475       -0.05565
C         -0.97018       -4.02773        0.48495
C         -2.25263       -4.08335       -0.37597
N         -2.62938       -2.80095       -1.03298
C         -1.51816       -2.29353       -1.89797
C         -0.10680       -2.79472       -1.51388
C         -3.07059       -1.78209       -0.03519
C         -0.85474        2.80438       -0.74008
C         -2.19609        3.15516       -0.61718
H         -3.03167        0.90352        1.84151
H          6.54828        0.90238       -0.52782
H          5.98722       -0.95166        1.15593
H          1.13218        0.13315        1.86769
H         -1.21291       -3.77834        1.54418
H         -0.46997       -5.02247        0.50188
H         -3.10604       -4.42855        0.24674
H         -2.13652       -4.83979       -1.18500
H         -1.52949       -1.18352       -1.92837
H         -1.75700       -2.63378       -2.93208
H          0.66877       -2.06195       -1.83505
H          0.12294       -3.75268       -2.03369
H         -3.43221       -0.89076       -0.57374
H         -3.92633       -2.18304        0.53147
H         -2.30063       -1.46281        0.68414
H         -0.20549        3.32346       -1.45409
H         -2.62077        3.95111       -1.23386
