24
omegapdb_1gs5_22.log	Energy:    -238.4679011
C         -0.53778        0.43133        0.86163
C         -0.75809        1.75947        0.09409
O         -0.65196        2.83758        0.62537
O         -1.03800        1.70872       -1.22739
C          0.62269       -0.37163        0.24874
C          1.92739        0.42569        0.26791
C          3.11486       -0.41369       -0.10253
O          4.07156       -0.12743       -0.77891
O          3.03983       -1.66578        0.47304
N         -1.78750       -0.35600        0.92260
C         -2.36185       -0.97883       -0.19017
O         -1.88560       -0.81985       -1.31002
C         -3.56944       -1.81678        0.08698
H         -0.26918        0.71879        1.91966
H         -1.16260        0.76847       -1.61494
H          0.75266       -1.32384        0.81120
H          0.37615       -0.68183       -0.79188
H          2.11122        0.87026        1.27358
H          1.87489        1.29559       -0.43074
H          3.82477       -2.23487        0.24763
H         -2.19955       -0.45525        1.84728
H         -4.41658       -1.22151        0.45973
H         -3.91401       -2.30069       -0.84593
H         -3.37854       -2.62228        0.80954
