57
omegacsd_SPIRIL_04.log	Energy:     -33.8839571
C          2.49216        0.14813        0.86957
C          3.11089       -0.72154       -0.24120
C          2.76688       -2.21513        0.04471
O          1.68756       -2.76654        0.02247
N          3.94925       -2.87264        0.39502
C          5.14683       -2.00550        0.28412
N          4.62068       -0.70638       -0.26436
C          5.34973        0.48602        0.03114
C          4.93810        1.70293       -0.55934
C          5.69732        2.85545       -0.38056
C          6.87348        2.82619        0.37931
C          7.28347        1.62533        0.96075
C          6.53257        0.45834        0.79819
C          2.58575       -0.31267       -1.62932
C          1.05011       -0.27951       -1.65420
N          0.56018        0.65758       -0.59148
C         -0.90762        0.90168       -0.69008
C         -1.81494       -0.33801       -0.56103
C         -3.25939        0.04856       -0.52900
C         -4.18265       -0.49927        0.27564
C         -5.59773       -0.05119        0.20870
C         -6.11151        0.80036        1.20020
C         -7.44174        1.22304        1.15061
C         -8.23297        0.76993        0.09096
C         -7.75515       -0.07775       -0.91235
C         -6.42091       -0.48547       -0.84278
F         -9.50693        1.16669        0.03447
C         -3.91861       -1.58127        1.27260
C          0.95781        0.16187        0.76663
H          2.86625        1.19080        0.78493
H          2.80261       -0.20695        1.86892
H          4.03279       -3.86839        0.53814
H          5.63705       -1.89856        1.28311
H          5.88547       -2.41387       -0.44757
H          4.03027        1.73556       -1.17058
H          5.37297        3.78946       -0.84033
H          7.46089        3.73042        0.51218
H          8.19833        1.59326        1.55258
H          6.87437       -0.45756        1.27217
H          2.96932       -0.99575       -2.40979
H          2.98577        0.69739       -1.88214
H          0.70355        0.09627       -2.64005
H          0.65190       -1.31473       -1.53480
H         -1.17543        1.64579        0.09341
H         -1.09120        1.40611       -1.66499
H         -1.53573       -0.92174        0.34293
H         -1.64468       -1.03039       -1.41272
H         -3.53959        0.83148       -1.23696
H         -5.46600        1.13654        2.01171
H         -7.84556        1.88482        1.91460
H         -8.39865       -0.41183       -1.72418
H         -6.01523       -1.14608       -1.60926
H         -4.33777       -2.53794        0.92818
H         -2.84324       -1.73906        1.44301
H         -4.37740       -1.35817        2.24520
H          0.55571       -0.85378        0.99003
H          0.54299        0.85592        1.52829
