57
omegacsd_SPIRIL_12.log	Energy:     -29.9489667
C         -2.41549       -0.70739       -0.80670
C         -3.64058       -0.88798        0.10863
C         -4.58990       -1.92044       -0.58173
O         -4.35906       -3.07360       -0.86942
N         -5.79831       -1.28170       -0.86224
C         -5.85110        0.10412       -0.33898
N         -4.49927        0.34365        0.28085
C         -3.92897        1.65016        0.11719
C         -2.84237        2.00929        0.94373
C         -2.32923        3.30331        0.89694
C         -2.88049        4.25864        0.03492
C         -3.95487        3.90574       -0.78486
C         -4.47869        2.61182       -0.75354
C         -3.25358       -1.44807        1.49504
C         -1.80017       -1.14504        1.87767
N         -0.80900       -1.69365        0.89172
C          0.45682       -0.88707        0.91901
C          1.61294       -1.76918        0.41022
C          2.91920       -1.04346        0.47230
C          3.86835       -1.08722       -0.47490
C          5.14208       -0.34355       -0.29560
C          5.37562        0.83475       -1.02313
C          6.57128        1.53916       -0.86544
C          7.51613        1.03167        0.03114
C          7.31757       -0.13743        0.77098
C          6.11315       -0.82345        0.59824
F          8.66356        1.69654        0.18874
C          3.77296       -1.86298       -1.74927
C         -1.38255       -1.80100       -0.48266
H         -2.70653       -0.75440       -1.87251
H         -1.95603        0.29160       -0.67563
H         -6.61201       -1.73127       -1.25504
H         -6.10100        0.81987       -1.16095
H         -6.61152        0.20322        0.47426
H         -2.41259        1.27236        1.63160
H         -1.49341        3.57502        1.54182
H         -2.47611        5.26712        0.00609
H         -4.38885        4.64361       -1.45966
H         -5.30976        2.35539       -1.40957
H         -3.40207       -2.55158        1.49866
H         -3.93398       -1.04737        2.27323
H         -1.56430       -1.63138        2.85168
H         -1.69198       -0.04041        2.02741
H          0.66791       -0.57946        1.96625
H          0.39435        0.04542        0.31946
H          1.39514       -2.12652       -0.61920
H          1.67119       -2.69400        1.02680
H          3.07498       -0.45725        1.38042
H          4.61646        1.20400       -1.71266
H          6.75761        2.45406       -1.42482
H          8.07475       -0.50527        1.46110
H          5.92511       -1.73868        1.16014
H          4.42322       -2.74931       -1.71325
H          2.75027       -2.21561       -1.94756
H          4.08931       -1.26492       -2.61440
H         -1.86913       -2.80714       -0.54366
H         -0.57301       -1.80177       -1.24080
