50
omegapdb_1xom_12.log	Energy:    -142.7294460
O          6.80893        0.32542        0.02183
C          5.66097       -0.42469        0.17152
O          5.71661       -1.49373        0.72770
C          4.49128        0.32364       -0.43664
C          3.72801       -0.62325       -1.38527
C          2.24199       -0.26799       -1.44626
C          1.54893       -0.46111       -0.06626
C          2.52425       -0.14695        1.10597
C          3.59916        0.86268        0.69997
C          1.18047       -1.88652        0.06260
N          0.91109       -3.00524        0.16007
C          0.30583        0.42707       -0.01688
C          0.44638        1.79646        0.18360
C         -0.67530        2.64731        0.22042
C         -1.94357        2.11390        0.04972
O         -3.13780        2.79639        0.05761
C         -3.07683        4.22557        0.28699
C         -2.09960        0.70188       -0.16866
C         -0.98269       -0.12182       -0.20575
O         -3.40118        0.31764       -0.32948
C         -3.70527       -1.10170       -0.56613
C         -5.19331       -1.05240       -0.94882
C         -5.95168       -1.89444        0.09081
C         -4.89372       -2.67143        0.89760
C         -3.56937       -1.90890        0.73311
H          7.61269       -0.11187        0.40899
H          4.88822        1.19411       -1.02174
H          4.17252       -0.57956       -2.39775
H          3.84188       -1.67809       -1.04944
H          1.73209       -0.88115       -2.21498
H          2.11556        0.78137       -1.78067
H          1.95435        0.22248        1.98019
H          3.02208       -1.08093        1.44936
H          4.21151        1.13909        1.58078
H          3.11620        1.80817        0.36527
H          1.43703        2.23766        0.31607
H         -0.52805        3.71096        0.38314
H         -2.51901        4.71818       -0.51390
H         -4.14041        4.49724        0.24956
H         -2.65419        4.43758        1.27284
H         -1.10709       -1.18859       -0.37925
H         -3.05341       -1.46091       -1.38340
H         -5.34921       -1.42940       -1.97224
H         -5.54433        0.00063       -0.94747
H         -6.67042       -2.57707       -0.39038
H         -6.54010       -1.23978        0.75845
H         -5.17888       -2.75717        1.95889
H         -4.79550       -3.70363        0.51711
H         -2.70498       -2.59241        0.71448
H         -3.40420       -1.21986        1.58440
