45
omegacsd_FABSOQ10_11.log	Energy:     -98.2891778
S         -0.00002       -2.31015       -0.82733
C          1.26141       -1.36748       -0.09043
C          0.72049       -0.39526        0.70154
C         -0.72040       -0.39526        0.70161
C         -1.26140       -1.36747       -0.09030
C         -2.68957       -1.73077       -0.33265
O         -3.06306       -2.77806        0.58024
C         -3.64050       -0.55563       -0.22086
C         -4.85887       -0.70492        0.44929
C         -5.76571        0.35614        0.53577
C         -5.42995        1.56943       -0.07581
O         -6.20528        2.70671       -0.08213
C         -7.48969        2.65534        0.58476
C         -4.21264        1.73925       -0.77102
C         -3.32949        0.67015       -0.83890
C          2.68958       -1.73073       -0.33288
O          3.06308       -2.77819        0.57981
C          3.64050       -0.55561       -0.22095
C          3.32950        0.67022       -0.83893
C          4.21263        1.73930       -0.77096
C          5.42994        1.56944       -0.07572
O          6.20524        2.70675       -0.08196
C          7.48968        2.65534        0.58487
C          5.76568        0.35613        0.53579
C          4.85884       -0.70495        0.44922
H          1.29354        0.32308        1.27506
H         -1.29339        0.32310        1.27516
H         -2.83849       -2.23702       -1.32364
H         -2.84601       -2.52844        1.50407
H         -5.10751       -1.66753        0.90528
H         -6.70422        0.22318        1.06200
H         -7.35611        2.46023        1.65247
H         -8.13508        1.91079        0.11000
H         -7.87056        3.67112        0.41497
H         -3.99273        2.69574       -1.23940
H         -2.38595        0.78325       -1.37626
H          2.83845       -2.23683       -1.32397
H          2.84610       -2.52872        1.50370
H          2.38597        0.78332       -1.37630
H          3.99277        2.69583       -1.23929
H          7.87054        3.67113        0.41514
H          8.13505        1.91082        0.11004
H          7.35615        2.46016        1.65257
H          6.70417        0.22312        1.06206
H          5.10751       -1.66757        0.90516
