40
omegapdb_2byh_06.log	Energy:     -94.7592890
O         -6.64118       -2.24449       -0.23711
C         -6.49343       -1.15267        0.27522
C         -7.63387       -0.48010        0.98933
C         -5.18599       -0.44183        0.21510
C         -4.13084       -1.06296       -0.47969
C         -2.88121       -0.45953       -0.57776
C         -2.67040        0.79218        0.02847
C         -3.72169        1.42691        0.73096
C         -4.96439        0.80591        0.81666
N         -1.42256        1.47823       -0.03213
C         -0.23701        1.01370       -0.65887
O         -0.17572       -0.08568       -1.17990
C          0.86477        1.97889       -0.60268
C          0.76451        3.39102       -0.85774
N          1.97906        3.97603       -0.72339
N          2.85349        2.97882       -0.40263
C          2.22505        1.73139       -0.32035
C          2.95367        0.51642        0.00040
C          2.57592       -0.71732       -0.56399
C          3.25845       -1.88418       -0.23521
Cl         2.79580       -3.37877       -0.92551
C          4.33998       -1.85241        0.67431
O          5.04105       -2.94972        1.04938
C          4.75582       -0.63958        1.24173
C          4.06226        0.51965        0.88524
O          4.44224        1.74518        1.36817
H         -7.40926       -0.30928        2.04914
H         -7.88984        0.48459        0.53463
H         -8.53819       -1.10764        0.94780
H         -4.30773       -2.03914       -0.94733
H         -2.06986       -0.95799       -1.12091
H         -3.56939        2.39290        1.20481
H         -5.76693        1.30553        1.36140
H         -1.38481        2.38088        0.45138
H         -0.12043        3.94062       -1.13981
H          3.82559        3.18870       -0.19516
H          1.72552       -0.75992       -1.27123
H          4.71300       -3.79667        0.62854
H          5.59499       -0.63092        1.93251
H          5.17802        1.68054        2.03360
