34
omegapdb_2f7p_07.log	Energy:    -115.0686335
C         -0.96526       -0.05297       -0.81432
N          0.43930       -0.43145       -0.58083
C          1.40198        0.71018       -0.65787
C          2.77285        0.24594       -0.22766
C          3.49022        0.97616        0.73083
C          4.76935        0.56046        1.11220
C          5.33534       -0.58508        0.54442
C          4.61928       -1.31599       -0.40958
C          3.34275       -0.90240       -0.79780
C         -1.85963       -1.32910       -0.74875
O         -1.54464       -2.18682        0.35149
C         -3.29125       -0.78455       -0.49735
O         -4.08707       -1.71244        0.23277
C         -3.07778        0.46961        0.40660
O         -3.13640        0.06350        1.78315
C         -1.62680        0.93125        0.19366
S         -1.58768        2.58988       -0.53617
H         -1.03011        0.36267       -1.85844
H          0.54881       -0.94192        0.30358
H          1.44413        1.04941       -1.72143
H          1.08125        1.59664       -0.06541
H          3.05773        1.86841        1.17883
H          5.32498        1.13089        1.85445
H          6.33039       -0.90749        0.84378
H          5.05739       -2.20920       -0.85199
H          2.77995       -1.47206       -1.53890
H         -1.74732       -1.99176       -1.62894
H         -1.55982       -1.67155        1.20319
H         -3.85973       -0.56053       -1.42037
H         -3.51791       -2.47596        0.54940
H         -3.85018        1.24657        0.24403
H         -3.92746       -0.53019        1.91371
H         -1.09251        0.92587        1.17434
H         -2.03318        3.30718        0.51914
