46
omegacsd_CDBMPI10_00.log	Energy:     -41.4470290
O         -0.58249       -0.88663        2.00029
C         -1.24467       -0.21449        1.22399
N         -0.88865        1.13500        0.99283
C          0.47073        1.57744        1.44617
C          1.38190        1.85315        0.20938
N          0.88898        1.13596       -0.99243
C         -0.47047        1.57868       -1.44533
C         -1.38166        1.85322       -0.20829
C         -0.34817        2.81969       -2.32769
C          1.24475       -0.21354       -1.22424
O          0.58253       -0.88516       -2.00096
C          2.47815       -0.72200       -0.54547
C          2.35687       -1.40677        0.67059
C          3.50234       -1.92170        1.28391
C          4.75575       -1.75466        0.68538
C          4.86886       -1.07262       -0.53099
C          3.72871       -0.55473       -1.15225
C          0.34836        2.81764        2.32968
C         -2.47822       -0.72231        0.54501
C         -3.72861       -0.55571        1.15228
C         -4.86892       -1.07302        0.53077
C         -4.75610       -1.75381       -0.68630
C         -3.50281       -1.92019       -1.28535
C         -2.35723       -1.40583       -0.67180
H          0.91964        0.73947        2.05390
H          2.42945        1.56011        0.43535
H          1.41007        2.93962       -0.02906
H         -0.91934        0.74125       -2.05382
H         -1.40992        2.93949        0.03109
H         -2.42919        1.56031       -0.43452
H          0.09159        3.67244       -1.79913
H          0.29737        2.61652       -3.19431
H         -1.32597        3.12868       -2.71386
H          1.37382       -1.54298        1.13881
H          3.41374       -2.45813        2.22828
H          5.64539       -2.16028        1.16546
H          5.84445       -0.94934       -0.99814
H          3.80976       -0.03125       -2.10448
H         -0.29639        2.61335        3.19662
H         -0.09234        3.67056        1.80216
H          1.32626        3.12692        2.71536
H         -3.80947       -0.03322        2.10507
H         -5.84438       -0.95022        0.99831
H         -5.64582       -2.15900       -1.16659
H         -3.41447       -2.45565       -2.23028
H         -1.37427       -1.54148       -1.14039
