41
omegacsd_CEJTIU_03.log	Energy:     -45.1469387
C         -6.65850       -1.61633       -0.02532
N         -6.06353       -0.37473        0.54562
C         -6.96596        0.79412        0.33760
C         -4.68207       -0.14813        0.24158
C         -3.82643       -1.21493       -0.11205
C         -2.45757       -1.01534       -0.26888
C         -1.91104        0.26373       -0.08048
C         -2.74899        1.34018        0.27287
C         -4.11487        1.13464        0.42911
N         -0.51011        0.54964       -0.22843
C          0.43984       -0.38861       -0.60850
O          0.25250       -1.56481       -0.86900
N          1.81397        0.07680       -0.71713
C          2.30561        1.37302       -0.47417
O          1.55882        2.27650       -0.13417
C          3.78881        1.57829       -0.70159
C          4.64674        0.49435       -0.11457
C          5.32427       -0.40285       -0.95246
C          6.12231       -1.40706       -0.39620
C          6.24484       -1.52115        0.99182
C          5.56793       -0.62583        1.82710
C          4.77028        0.38128        1.27872
H         -7.69532       -1.72254        0.33325
H         -6.66462       -1.64691       -1.12570
H         -6.10206       -2.49371        0.34910
H         -6.62308        1.63891        0.96057
H         -7.02578        1.13196       -0.70830
H         -7.98101        0.53718        0.68168
H         -4.22341       -2.21856       -0.25714
H         -1.81418       -1.86027       -0.54099
H         -2.33593        2.33675        0.42649
H         -4.74472        1.97635        0.71438
H         -0.21174        1.52707       -0.03160
H          2.47498       -0.67694       -0.96750
H          4.07399        2.56707       -0.26529
H          3.97104        1.69914       -1.79341
H          5.23803       -0.32009       -2.03416
H          6.64905       -2.10314       -1.04832
H          6.86506       -2.30564        1.42234
H          5.66147       -0.71407        2.90925
H          4.24425        1.07562        1.93294
