34
omegapdb_2f7p_12.log	Energy:    -116.0906969
C         -0.94945        0.28817       -0.63007
N          0.42829        0.40468       -0.10593
C          1.47196        0.10997       -1.14090
C          2.82405        0.02270       -0.47412
C          3.57807       -1.15597       -0.56104
C          4.83788       -1.22451        0.04143
C          5.34661       -0.12264        0.73568
C          4.59168        1.05154        0.82882
C          3.33393        1.12667        0.22572
C         -1.50692       -1.16615       -0.75697
O         -1.04085       -2.01383        0.29535
C         -3.04123       -1.00996       -0.59412
O         -3.63850       -2.17410       -0.03517
C         -3.20081        0.15473        0.43254
O         -3.16336       -0.41435        1.75402
C         -1.92293        1.00189        0.34153
S         -2.36182        2.64177       -0.30020
H         -0.99512        0.76001       -1.64795
H          0.55952       -0.22423        0.70010
H          1.47241        0.94996       -1.87536
H          1.25815       -0.81618       -1.71961
H          3.18716       -2.02082       -1.09368
H          5.42249       -2.14028       -0.02931
H          6.32716       -0.17859        1.20415
H          4.98455        1.90905        1.37269
H          2.73933        2.03688        0.30364
H         -1.18986       -1.69537       -1.67393
H         -1.27683       -1.61343        1.18113
H         -3.58010       -0.82560       -1.54370
H         -2.92996       -2.78677        0.31680
H         -4.15195        0.71102        0.31788
H         -3.85745       -1.12323        1.81864
H         -1.47986        1.10798        1.36590
H         -1.13390        3.20819       -0.25726
