45
omegacsd_SEYMIS_04.log	Energy:     -71.2515781
O         -1.63686       -1.28568        2.56600
N         -2.72297       -0.48888        2.21495
C         -2.80000       -0.43453        0.87527
C         -1.70500       -1.21433        0.30848
C         -1.43650       -1.44025       -1.11738
O         -2.20680       -1.98044       -1.89599
N         -0.18872       -1.03508       -1.62362
C          0.80073       -0.31503       -0.91022
C          0.58032        0.79278       -0.05057
N          1.80928        1.20505        0.42243
C          2.00907        2.31903        1.35331
C          2.81082        0.39075       -0.12212
C          2.19211       -0.56433       -0.95654
C          4.23581        0.55407        0.15755
O          4.76985        1.38680        0.86548
O          4.95811       -0.41303       -0.49624
C          6.41785       -0.37453       -0.35914
C          6.98860        0.69590       -1.26386
C         -1.01928       -1.72493        1.39207
C          0.15164       -2.58173        1.57468
C         -3.83098        0.32595        0.16054
C         -4.44574       -0.21054       -0.98154
C         -5.43144        0.52252       -1.64714
C         -5.80849        1.78461       -1.17798
C         -5.20125        2.31693       -0.03511
C         -4.21652        1.59127        0.63797
H          0.01660       -1.24788       -2.60423
H         -0.35608        1.25511        0.21275
H          1.48400        2.13673        2.30862
H          1.63606        3.26598        0.92253
H          3.09115        2.46057        1.58496
H          2.70744       -1.32188       -1.51742
H          6.66837       -0.21409        0.70462
H          6.67493       -1.40169       -0.67748
H          6.60203        0.60787       -2.28782
H          6.72691        1.70269       -0.90435
H          8.08250        0.63867       -1.31346
H         -0.00437       -3.58129        1.12993
H          1.04605       -2.15108        1.08188
H          0.40281       -2.73385        2.63804
H         -4.15092       -1.20001       -1.35363
H         -5.90568        0.10501       -2.53477
H         -6.57681        2.35273       -1.70035
H         -5.49979        3.29684        0.33359
H         -3.75324        1.99915        1.53672
