50
omegapdb_1xom_23.log	Energy:    -137.2897438
O          6.09349       -1.85031       -0.70435
C          4.99008       -1.75517        0.12774
O          5.17130       -2.06664        1.27433
C          3.69851       -1.29812       -0.53767
C          2.53910       -1.32991        0.47764
C          2.33257        0.01624        1.17345
C          1.98014        1.15081        0.16815
C          2.56424        0.85641       -1.24349
C          3.89263        0.10259       -1.15391
C          2.62256        2.38278        0.67196
N          3.15094        3.33280        1.06116
C          0.46876        1.33458        0.04586
C         -0.13818        2.58747        0.13880
C         -1.52843        2.72166        0.00419
C         -2.32199        1.60252       -0.23468
O         -3.69502        1.62442       -0.39902
C         -4.37255        2.88875       -0.19510
C         -1.71382        0.31610       -0.33555
C         -0.32830        0.20086       -0.19146
O         -2.32184       -0.87708       -0.61983
C         -3.77609       -1.02604       -0.46522
C         -4.01777       -2.43185       -1.03684
C         -4.87261       -3.17644        0.00005
C         -4.66439       -2.45408        1.34508
C         -4.16606       -1.03574        1.02061
H          5.95062       -1.58360       -1.63600
H          3.45859       -2.02727       -1.35349
H          2.72613       -2.11381        1.24350
H          1.60159       -1.62812       -0.04247
H          3.25258        0.27361        1.74026
H          1.53478       -0.06802        1.93793
H          1.83235        0.26674       -1.83232
H          2.69474        1.80205       -1.80522
H          4.34145        0.01922       -2.16158
H          4.61042        0.69543       -0.54729
H          0.44822        3.48895        0.31755
H         -1.96963        3.71269        0.08302
H         -4.05032        3.61653       -0.94551
H         -4.20888        3.25138        0.82356
H         -5.42137        2.60442       -0.34950
H          0.11967       -0.79514       -0.26698
H         -4.26501       -0.21987       -1.04798
H         -3.04252       -2.93919       -1.18910
H         -4.50159       -2.39350       -2.02483
H         -4.58887       -4.23948        0.06662
H         -5.93782       -3.15575       -0.29031
H         -5.59448       -2.42984        1.93534
H         -3.91929       -2.99139        1.95856
H         -4.94156       -0.27713        1.22108
H         -3.30029       -0.76207        1.65034
