45
omegacsd_FABSOQ10_07.log	Energy:     -98.0879709
S         -0.00011       -2.33239       -0.94575
C          1.26146       -1.48134       -0.10530
C          0.72065       -0.60728        0.79400
C         -0.72020       -0.60730        0.79430
C         -1.26136       -1.48137       -0.10479
C         -2.69032       -1.81482       -0.38397
O         -3.07418       -2.93230        0.43570
C         -3.63484       -0.64676       -0.17931
C         -3.31319        0.62455       -0.66534
C         -4.19872        1.69617       -0.51120
C         -5.41817        1.46500        0.13652
O         -6.39248        2.40815        0.37243
C         -6.15883        3.75762       -0.09757
C         -5.76963        0.18784        0.62455
C         -4.87332       -0.85853        0.45511
C          2.69032       -1.81467       -0.38508
O          3.07450       -2.93268        0.43372
C          3.63486       -0.64671       -0.17987
C          3.31349        0.62459       -0.66613
C          4.19895        1.69620       -0.51153
C          5.41804        1.46502        0.13688
O          6.39222        2.40817        0.37330
C          6.15889        3.75761       -0.09694
C          5.76919        0.18789        0.62517
C          4.87296       -0.85848        0.45527
H          1.29400        0.03855        1.44754
H         -1.29329        0.03852        1.44808
H         -2.83705       -2.23587       -1.41436
H         -2.87148       -2.75790        1.38013
H         -2.36060        0.79079       -1.17166
H         -3.93352        2.67550       -0.89277
H         -5.28362        4.18672        0.39807
H         -6.05997        3.76923       -1.18671
H         -7.07894        4.26681        0.21870
H         -6.73034        0.04670        1.11442
H         -5.12788       -1.86215        0.80855
H          2.83677       -2.23500       -1.41580
H          2.87090       -2.75948        1.37816
H          2.36117        0.79081       -1.17296
H          3.93399        2.67552       -0.89329
H          6.06066        3.76913       -1.18615
H          5.28340        4.18678        0.39815
H          7.07882        4.26681        0.21981
H          6.72962        0.04675        1.11559
H          5.12729       -1.86209        0.80890
