45
omegacsd_FABSOQ10_03.log	Energy:     -98.0882282
S          0.73590       -0.93895       -0.84794
C          1.19892       -1.63580        0.67981
C          0.09340       -1.93212        1.42011
C         -1.14352       -1.59003        0.76045
C         -0.96415       -1.03985       -0.47466
C         -1.96499       -0.60307       -1.49275
O         -2.22883       -1.69985       -2.38548
C         -3.25418       -0.08069       -0.88930
C         -4.48613       -0.43854       -1.46851
C         -5.67875        0.05244       -0.95506
C         -5.62905        0.92661        0.15222
O         -6.87871        1.33481        0.56059
C         -6.96198        2.24408        1.68427
C         -4.41511        1.30855        0.73552
C         -3.22890        0.79637        0.19963
C          2.63811       -1.88182        0.99772
O          2.79758       -2.09598        2.41036
C          3.54882       -0.77105        0.52738
C          3.26594        0.56788        0.82208
C          4.12528        1.59107        0.41178
C          5.27863        1.24527       -0.30382
O          6.22101        2.12638       -0.77926
C          6.01411        3.53942       -0.53726
C          5.58738       -0.09782       -0.61068
C          4.71776       -1.09416       -0.18774
H          0.11918       -2.38718        2.40306
H         -2.10588       -1.76206        1.22659
H         -1.54863        0.16259       -2.20030
H         -2.46867       -2.50793       -1.88264
H         -4.49469       -1.10525       -2.33595
H         -6.64141       -0.21387       -1.38528
H         -6.45951        3.18651        1.44891
H         -6.55337        1.77537        2.58386
H         -8.04672        2.38904        1.77460
H         -4.37796        1.98574        1.58105
H         -2.27551        1.08852        0.64343
H          2.94980       -2.88213        0.59160
H          2.69892       -1.25697        2.90580
H          2.36037        0.82526        1.37439
H          3.88909        2.62302        0.64584
H          5.09285        3.87705       -1.02046
H          6.01349        3.74489        0.53685
H          6.89600        3.97993       -1.02137
H          6.49406       -0.32534       -1.16701
H          4.94627       -2.13747       -0.41283
