40
omegapdb_2byh_17.log	Energy:     -89.4136812
O          7.27050       -0.47155       -0.67222
C          6.22658       -0.06544       -1.14278
C          6.21511        0.74351       -2.40942
C          4.92220       -0.35018       -0.47943
C          3.68729        0.03411       -1.02095
C          2.49607       -0.25575       -0.35882
C          2.53272       -0.93260        0.87575
C          3.77001       -1.33749        1.42437
C          4.94741       -1.04410        0.74537
N          1.34893       -1.27683        1.58426
C          0.06914       -0.65212        1.56333
O         -0.83942       -1.32362        2.02870
C         -0.06831        0.70855        1.06303
C          0.89846        1.76355        1.22623
N          0.40522        2.92658        0.74291
N         -0.84612        2.64781        0.26987
C         -1.19854        1.30741        0.45726
C         -2.48626        0.77697        0.03821
C         -2.66475       -0.61108       -0.15517
C         -3.89343       -1.13019       -0.54431
Cl        -4.09533       -2.80512       -0.79247
C         -5.00108       -0.27030       -0.73019
O         -6.16063       -0.87218       -1.09838
C         -4.87309        1.11126       -0.54635
C         -3.61601        1.60404       -0.17068
O         -3.42496        2.95286       -0.00553
H          7.24230        0.90777       -2.77226
H          5.76339        1.73242       -2.26142
H          5.66806        0.23675       -3.21409
H          3.64353        0.56185       -1.97548
H          1.54482        0.03315       -0.80368
H          3.80886       -1.86776        2.37386
H          5.91566       -1.34933        1.16011
H          1.39672       -2.12926        2.16124
H          1.88130        1.67846        1.66875
H         -1.42708        3.39183       -0.11011
H         -1.82584       -1.30007        0.01395
H         -6.91096       -0.22674       -1.20281
H         -5.71601        1.77676       -0.68715
H         -4.26522        3.47322       -0.09144
