39
omegacsd_GALSEM_06.log	Energy:    -242.4763761
S          2.51941        0.00409        1.42271
O          3.19423        0.81756        2.39172
O          1.72014       -1.14312        1.88884
N          3.72764       -0.85314        0.49615
C          4.69010       -0.21247       -0.30853
O          4.61378        0.99437       -0.44854
C          5.75258       -1.08153       -0.94397
C          5.17958       -1.93399       -2.06812
C          1.60484        0.90970        0.33061
C          0.31031        0.54714       -0.12646
N         -0.31318       -0.58925        0.35651
C         -1.66176       -0.97958        0.04406
C         -2.73393       -0.08277        0.19355
C         -4.03063       -0.52704       -0.08204
C         -4.26593       -1.84933       -0.48301
C         -3.19110       -2.73560       -0.61056
C         -1.88776       -2.31126       -0.35240
C         -5.21041        0.40293        0.05296
F         -4.93745        1.66794        0.40876
F         -6.11741        0.00556        0.96141
F         -5.92467        0.54123       -1.07810
C         -0.31965        1.37830       -1.10279
C          0.31290        2.53765       -1.51389
N          1.53975        2.93257       -1.02889
C          2.15635        2.13272       -0.14749
H          3.77763       -1.87591        0.60315
H          6.55208       -0.41402       -1.34212
H          6.25116       -1.71385       -0.18090
H          5.97279       -2.50920       -2.56455
H          4.43232       -2.65113       -1.70955
H          4.70150       -1.31438       -2.83994
H          0.18758       -1.21864        1.04828
H         -2.54139        0.93844        0.53309
H         -5.27980       -2.19618       -0.69377
H         -3.37450       -3.76723       -0.91703
H         -1.05206       -3.00503       -0.45600
H         -1.27763        1.09764       -1.53379
H         -0.13720        3.21181       -2.25532
H          3.15511        2.46880        0.20240
