24
omegapdb_1gs5_16.log	Energy:    -235.3519001
C         -0.23403       -0.54443       -0.33137
C         -1.17471       -1.74572       -0.15984
O         -2.27937       -1.91824       -0.61212
O         -0.56838       -2.73252        0.57831
C          0.60077       -0.31165        0.94163
C          1.68529        0.74923        0.74670
C          2.71929        0.32915       -0.26501
O          2.54192       -0.22206       -1.32250
O          4.02947        0.63731        0.04328
N         -1.02411        0.63022       -0.74425
C         -1.85282        1.35410        0.13899
O         -1.81074        1.17884        1.34233
C         -2.72463        2.37520       -0.53247
H          0.47479       -0.80394       -1.18461
H         -1.14499       -3.53768        0.68967
H          1.05205       -1.27839        1.25730
H         -0.06976       -0.00026        1.78038
H          2.13912        0.98919        1.72941
H          1.21689        1.70161        0.40019
H          4.17276        1.07231        0.91160
H         -1.17135        0.70921       -1.75031
H         -3.20419        3.01672        0.22653
H         -3.53862        1.90138       -1.10167
H         -2.17606        3.03630       -1.21491
