45
omegacsd_SEYMIS_11.log	Energy:     -69.9723750
O         -4.76904        2.37431       -0.28010
N         -4.95275        0.99679       -0.18029
C         -3.75270        0.41697       -0.03062
C         -2.71938        1.44207       -0.03950
C         -1.25711        1.34801        0.09870
O         -0.58102        2.26582        0.53776
N         -0.68416        0.14784       -0.34971
C          0.70535       -0.12221       -0.28386
C          1.29067       -1.34430       -0.71335
N          2.65295       -1.24371       -0.50588
C          3.62957       -2.29361       -0.80573
C          2.94889        0.00558        0.04664
C          1.73676        0.71921        0.18994
C          4.26684        0.51195        0.41551
O          4.55241        1.58921        0.88308
O          5.25213       -0.43869        0.17114
C          6.63475       -0.05981        0.45995
C          7.17558        0.80266       -0.66141
C         -3.40289        2.63917       -0.18158
C         -2.99810        4.04111       -0.24507
C         -3.58258       -1.03176        0.13725
C         -4.14619       -1.91770       -0.79415
C         -3.98283       -3.29533       -0.62516
C         -3.26802       -3.78906        0.47070
C         -2.71516       -2.90477        1.40385
C         -2.87081       -1.52644        1.24268
H         -1.27106       -0.59342       -0.73367
H          0.80959       -2.20897       -1.12762
H          3.17817       -3.11884       -1.37797
H          4.47923       -1.87673       -1.38825
H          4.06287       -2.69916        0.13048
H          1.62505        1.71831        0.58683
H          6.66219        0.45286        1.43898
H          7.11612       -1.05183        0.52122
H          7.01959        0.33959       -1.64304
H          8.24908        0.98973       -0.54280
H          6.67213        1.78227       -0.68245
H         -1.97619        4.16711        0.18176
H         -3.67630        4.70585        0.31459
H         -2.95828        4.41564       -1.28252
H         -4.71744       -1.52992       -1.63888
H         -4.42110       -3.98469       -1.34606
H         -3.14679       -4.86369        0.60209
H         -2.16538       -3.29054        2.26207
H         -2.44554       -0.83547        1.97264
