44
omegacsd_CUHNEY10_14.log	Energy:     -26.9857018
Cl        -4.03192        3.59550       -0.01225
C         -2.47342        2.89679        0.09353
C         -1.64204        2.87372       -1.04079
N         -0.40317        2.33044       -1.00252
C          0.04288        1.82044        0.18664
N          1.38153        1.31639        0.20832
C          2.43415        1.74151       -0.69955
O          2.42997        2.73378       -1.35970
C          3.53056        0.72031       -0.47753
N          4.73754        0.68627       -1.05527
C          5.54629       -0.34173       -0.65226
C          5.14126       -1.28765        0.31145
N          3.90384       -1.24965        0.89759
C          3.11217       -0.25016        0.48717
C          1.69248        0.04856        0.93968
O          0.85888       -0.99373        0.38598
C         -0.15127       -1.50295        1.22097
O         -0.34635       -1.03212        2.32339
N         -0.73002       -2.63494        0.64579
C         -0.55030       -2.88836       -0.81329
C         -1.68953       -2.25762       -1.64045
N         -3.06089       -2.62209       -1.17950
C         -3.20120       -2.37195        0.28451
C         -2.08878       -2.99637        1.15232
C         -3.42015       -4.02287       -1.54445
C         -0.75281        1.79010        1.35580
C         -2.02972        2.34435        1.29994
H         -1.96645        3.28764       -2.00565
H          6.53711       -0.38446       -1.12262
H          5.80202       -2.10094        0.63773
H          1.54484        0.14052        2.04428
H          0.43975       -2.49849       -1.14563
H         -0.52226       -3.99278       -0.94890
H         -1.61784       -1.14515       -1.60335
H         -1.57795       -2.53229       -2.71088
H         -4.19411       -2.73614        0.62426
H         -3.21754       -1.26578        0.42238
H         -2.18981       -2.67542        2.21496
H         -2.15046       -4.10752        1.14462
H         -4.46633       -4.21108       -1.25201
H         -2.78925       -4.80195       -1.09416
H         -3.37283       -4.12895       -2.64094
H         -0.38909        1.33559        2.28060
H         -2.67213        2.34870        2.18337
