57
omegacsd_SPIRIL_19.log	Energy:     -33.1092464
C          1.89241        0.23650        0.46914
C          2.62996       -0.67174       -0.53565
C          1.93811       -2.07198       -0.52094
O          0.81663       -2.36242       -0.87705
N          2.83077       -2.99357        0.02838
C          4.15721       -2.40299        0.33028
N          4.05788       -0.98803       -0.17170
C          4.94764       -0.01842        0.36768
C          6.04007       -0.41490        1.17165
C          6.97334        0.53417        1.59338
C          6.84154        1.87798        1.23754
C          5.75970        2.27171        0.44188
C          4.81760        1.34243        0.00889
C          2.59797       -0.11808       -1.97258
C          1.18701        0.35170       -2.34639
N          0.65932        1.42284       -1.43813
C         -0.81132        1.29535       -1.22023
C         -1.28977        0.03222       -0.47758
C         -2.78314       -0.03393       -0.46900
C         -3.56851        0.29652        0.56810
C         -5.04405        0.17421        0.46006
C         -5.73300       -0.74517        1.26900
C         -7.12100       -0.86820        1.17882
C         -7.79248       -0.04902        0.26640
C         -7.14117        0.87699       -0.55283
C         -5.75203        0.97966       -0.44713
F         -9.12054       -0.15661        0.17369
C         -3.06497        0.79068        1.88799
C          1.43958        1.55834       -0.17840
H          2.52694        0.45437        1.34938
H          1.00027       -0.28814        0.87486
H          2.67608       -3.99051        0.07214
H          4.36215       -2.46302        1.42709
H          4.97319       -2.91926       -0.23167
H          6.18126       -1.44927        1.46675
H          7.81474        0.21711        2.21017
H          7.57146        2.60981        1.57134
H          5.65187        3.31830        0.15510
H          3.98566        1.67289       -0.62062
H          3.32319        0.71875       -2.06880
H          2.94781       -0.88494       -2.69085
H          0.50806       -0.53511       -2.38507
H          1.19928        0.79780       -3.36653
H         -1.14765        2.20274       -0.67194
H         -1.29441        1.34861       -2.22207
H         -0.87466       -0.88277       -0.96714
H         -0.86969        0.00901        0.54759
H         -3.22210       -0.39035       -1.40355
H         -5.17792       -1.37014        1.96867
H         -7.65923       -1.58158        1.80003
H         -7.69442        1.49998       -1.25311
H         -5.21277        1.69211       -1.07178
H         -2.66109       -0.03657        2.48809
H         -2.26304        1.53061        1.76232
H         -3.85511        1.27029        2.48094
H          0.85997        2.15530        0.55675
H          2.34187        2.16982       -0.43524
