39
omegacsd_GALSEM_14.log	Energy:    -237.4108710
S          2.52609       -0.17211       -1.12856
O          3.54367       -0.58643       -2.05264
O          1.48623        0.77371       -1.52016
N          3.29754        0.45648        0.30112
C          4.07313        1.65016        0.26720
O          4.17460        2.23433       -0.78649
C          4.70678        2.04516        1.58403
C          5.25448        3.46548        1.51494
C          1.75963       -1.54023       -0.44561
C          0.42361       -1.54969        0.02652
N         -0.34796       -0.40292       -0.04726
C         -1.66253       -0.26502        0.51641
C         -2.67792        0.27575       -0.29585
C         -3.94683        0.47618        0.25272
C         -4.21166        0.14356        1.58938
C         -3.19232       -0.38783        2.38476
C         -1.91490       -0.59113        1.86037
C         -5.06782        1.05057       -0.57827
F         -6.13175        0.23595       -0.68921
F         -5.58269        2.18935       -0.08347
F         -4.77278        1.36136       -1.84945
C         -0.08817       -2.76762        0.57214
C          0.72573       -3.88531        0.61048
N          2.01972       -3.88815        0.13618
C          2.49628       -2.74896       -0.38864
H          3.20420       -0.03993        1.19259
H          5.52774        1.33281        1.81857
H          3.97949        1.96107        2.41693
H          5.93821        3.58886        0.66101
H          4.45179        4.20224        1.37655
H          5.80205        3.72895        2.42618
H         -0.02306        0.40644       -0.65203
H         -2.46083        0.52915       -1.33742
H         -5.20523        0.29843        2.01551
H         -3.39572       -0.63996        3.42725
H         -1.11893       -0.98767        2.49189
H         -1.11877       -2.82922        0.91464
H          0.37573       -4.84346        1.01824
H          3.52478       -2.79112       -0.79321
