36
omegapdb_1qxw_04.log	Energy:    -107.6440495
C         -4.15310       -1.62591       -0.93414
C         -4.95335       -1.03322        0.20908
C         -3.45092       -1.21496        0.36201
N         -2.60424       -0.02439        0.45056
C         -1.24260       -0.27096       -0.11527
C         -0.41263        1.02342        0.03539
C          1.04980        0.93304       -0.50132
N          1.61440        2.30970       -0.42711
C          1.85240       -0.12308        0.28306
C          3.23192       -0.37853       -0.33209
C          3.99299       -1.46749        0.43843
C          5.37225       -1.72400       -0.16362
O         -0.30057        1.44505        1.38664
O         -1.15986        2.01385       -0.65897
H         -4.00757       -1.04295       -1.83966
H         -4.25998       -2.67903       -1.17697
H         -5.37629       -0.03573        0.10695
H         -5.62487       -1.66673        0.78438
H         -3.08178       -2.00985        1.02828
H         -3.02962        0.77885       -0.03957
H         -0.75717       -1.08874        0.46332
H         -1.25819       -0.58120       -1.18235
H          0.99825        0.64884       -1.58576
H          2.55632        2.32947       -0.80724
H          1.67340        2.61284        0.54635
H          1.28302       -1.07261        0.32599
H          1.94917        0.19943        1.34093
H          3.12607       -0.67693       -1.39340
H          3.82951        0.55312       -0.33946
H          4.09766       -1.17330        1.50153
H          3.40654       -2.40723        0.44233
H          5.90644       -2.50439        0.39065
H          5.99732       -0.82396       -0.14351
H          5.30456       -2.05274       -1.20696
H         -1.18362        1.44985        1.83108
H         -0.65731        2.86491       -0.72172
