40
omegapdb_2byh_05.log	Energy:     -94.7592852
O         -6.64142       -2.24429       -0.23758
C         -6.49357       -1.15264        0.27509
C         -7.63388       -0.48028        0.98959
C         -5.18610       -0.44184        0.21504
C         -4.96459        0.80604        0.81635
C         -3.72187        1.42700        0.73072
C         -2.67046        0.79210        0.02856
C         -2.88119       -0.45974       -0.57742
C         -4.13085       -1.06313       -0.47944
N         -1.42261        1.47812       -0.03198
C         -0.23705        1.01358       -0.65868
O         -0.17571       -0.08586       -1.17958
C          0.86470        1.97883       -0.60260
C          0.76437        3.39093       -0.85771
N          1.97892        3.97599       -0.72352
N          2.85341        2.97882       -0.40280
C          2.22502        1.73138       -0.32040
C          2.95370        0.51645        0.00036
C          2.57599       -0.71732       -0.56397
C          3.25860       -1.88414       -0.23518
Cl         2.79601       -3.37877       -0.92544
C          4.34016       -1.85229        0.67430
O          5.04129       -2.94955        1.04938
C          4.75596       -0.63941        1.24165
C          4.06234        0.51977        0.88515
O          4.44228        1.74534        1.36801
H         -7.89015        0.48438        0.53499
H         -7.40898       -0.30945        2.04933
H         -8.53812       -1.10796        0.94830
H         -5.76723        1.30580        1.36084
H         -3.56964        2.39310        1.20437
H         -2.06975       -0.95834       -1.12032
H         -4.30768       -2.03939       -0.94692
H         -1.38488        2.38078        0.45152
H         -0.12062        3.94050       -1.13970
H          3.82551        3.18875       -0.19542
H          1.72555       -0.75999       -1.27115
H          4.71326       -3.79654        0.62859
H          5.59514       -0.63069        1.93241
H          5.17811        1.68075        2.03339
