66
omegapdb_1z1r_17.log	Energy:    -264.3121070
C          0.59113       -1.72491       -0.21582
C         -0.11888       -2.98194        0.34304
C         -1.45645       -2.61733        0.92127
C         -2.63525       -3.08823        0.32172
C         -3.87352       -2.56550        0.69603
C         -3.90780       -1.56871        1.68039
C         -2.75709       -1.16724        2.37278
C         -1.53099       -1.70904        1.99268
O         -5.15406       -0.99736        1.94076
C         -5.20782        0.43658        1.70246
C         -4.99874        0.72228        0.21141
C         -4.66981        2.18523       -0.07573
C         -3.39789        2.66377        0.59335
O         -3.40189        3.46380        1.51505
N         -2.14428        2.25109        0.11804
C         -1.88296        1.18216       -0.85666
C         -0.57709        0.46558       -0.41441
O          0.25780        1.03818        0.27730
N         -0.39389       -0.82381       -0.87627
C         -1.70293        1.76316       -2.27528
C         -1.93327        0.70262       -3.32869
O         -2.19851       -0.46575       -3.07676
N         -1.83805        1.11618       -4.65088
C          1.69598       -2.10514       -1.24190
O          2.51438       -3.13389       -0.70699
C          2.55261       -0.86270       -1.63763
N          3.98765       -0.96652       -1.30155
S          4.40628       -0.80549        0.36537
O          5.76103       -1.30167        0.47280
O          3.34907       -1.47842        1.13416
C          4.34919        0.88355        0.67261
C          5.52034        1.64246        0.54466
C          5.49454        3.01472        0.80071
C          4.29662        3.62915        1.18756
C          3.12877        2.87248        1.31830
C          3.15434        1.49730        1.06261
H          1.07884       -1.17600        0.64592
H         -0.21303       -3.75828       -0.44316
H          0.53268       -3.44824        1.11437
H         -2.58698       -3.84443       -0.46137
H         -4.79772       -2.89986        0.22987
H         -2.82365       -0.44314        3.18193
H         -0.62018       -1.40160        2.50896
H         -6.23166        0.67138        2.04699
H         -4.47271        0.94936        2.34668
H         -4.18808        0.06698       -0.18994
H         -5.90609        0.42423       -0.35346
H         -4.61936        2.35652       -1.16964
H         -5.50027        2.83681        0.28506
H         -1.31117        2.62323        0.60393
H         -2.74080        0.43912       -0.85855
H         -1.10196       -1.27213       -1.47686
H         -0.69393        2.21821       -2.37935
H         -2.40682        2.61254       -2.41799
H         -1.61672        2.05479       -4.92906
H         -1.98294        0.44788       -5.39556
H          1.26585       -2.58176       -2.15237
H          2.74682       -2.95100        0.26260
H          2.47539       -0.71299       -2.73977
H          2.13388        0.06873       -1.18799
H          4.41605       -1.77528       -1.78445
H          6.45965        1.15904        0.25258
H          6.40445        3.60475        0.70353
H          4.27693        4.70102        1.38938
H          2.19437        3.34609        1.62015
H          2.22787        0.91256        1.17302
