45
omegacsd_SEYMIS_06.log	Energy:     -71.2427772
O          4.43827        2.64962       -0.22891
N          4.74455        1.30949       -0.00204
C          3.59788        0.61901        0.08231
C          2.47555        1.52712       -0.10394
C          1.02297        1.28894       -0.09313
O          0.22021        2.15761        0.21388
N          0.61875        0.00945       -0.50189
C         -0.73682       -0.40221       -0.54221
C         -1.15310       -1.70491       -0.92828
N         -2.53261       -1.73849       -0.85003
C         -3.35061       -2.91006       -1.17299
C         -3.00230       -0.49059       -0.42376
C         -1.88839        0.35434       -0.22793
C         -4.41606       -0.17929       -0.23128
O         -5.37258       -0.91870       -0.38186
O         -4.56800        1.12885        0.15166
C         -5.92857        1.60123        0.42133
C         -6.37046        1.13271        1.79152
C          3.04979        2.77596       -0.27847
C          2.51878        4.11981       -0.49233
C          3.55375       -0.82424        0.34860
C          4.29451       -1.70871       -0.45086
C          4.24980       -3.08074       -0.18901
C          3.47701       -3.56943        0.86912
C          2.74695       -2.68538        1.67151
C          2.78320       -1.31289        1.41664
H          1.31120       -0.68873       -0.77498
H         -0.55223       -2.54016       -1.23237
H         -4.43423       -2.69691       -1.01034
H         -3.08195       -3.76973       -0.53430
H         -3.22568       -3.20094       -2.23115
H         -1.91874        1.38315        0.10068
H         -6.59325        1.24766       -0.38665
H         -5.77518        2.69468        0.36022
H         -5.61519        1.35950        2.55594
H         -7.30941        1.60890        2.09594
H         -6.52947        0.04403        1.80664
H          3.07094        4.89001        0.07067
H          1.45262        4.16831       -0.17198
H          2.54590        4.41240       -1.55621
H          4.90937       -1.32282       -1.26529
H          4.82531       -3.76878       -0.80743
H          3.44800       -4.63917        1.07329
H          2.15140       -3.06625        2.50089
H          2.21920       -0.62146        2.04499
