25
omegapdb_1m5f_16.log	Energy:    -163.8228621
O         -0.27267       -2.33334        0.87060
C         -1.20546       -2.10163       -0.11416
O         -1.51852       -2.96795       -0.88728
C         -1.65525       -0.69299       -0.03893
N         -2.89457       -0.33319        0.32044
O         -2.98052        1.03538        0.24839
C         -1.73067        1.53954       -0.17651
C         -0.86340        0.48423       -0.36402
C          0.54911        0.50562       -0.79892
C          1.50573        0.17234        0.37242
N          1.47638        1.10992        1.51324
C          2.93773        0.21190       -0.16340
O          3.56024        1.12454       -0.64724
O          3.49331       -1.03919       -0.06384
C         -1.67079        2.99478       -0.31627
H          0.05566       -3.27806        0.87141
H          0.70309       -0.22333       -1.62705
H          0.81084        1.49495       -1.23710
H          1.28008       -0.86732        0.76219
H          1.51439        2.07823        1.20776
H          0.63357        0.98000        2.06607
H          4.44010       -1.06968       -0.37006
H         -1.45210        3.29338       -1.35731
H         -2.62613        3.47715       -0.04022
H         -0.88902        3.43926        0.32212
