36
omegapdb_1qxw_33.log	Energy:    -104.9203301
C         -4.69232        0.45338       -0.75800
C         -4.59140       -0.66519        0.26174
C         -3.65761       -0.65651       -0.93712
N         -2.21296       -0.45714       -0.80500
C         -1.76701        0.37756        0.34392
C         -0.31082       -0.01488        0.67743
C          0.78880        0.63340       -0.21670
N          0.58390        2.10804       -0.18918
C          2.18705        0.17452        0.24314
C          3.28222        0.54451       -0.76187
C          4.66854        0.05528       -0.31537
C          4.83598       -1.45595       -0.45387
O         -0.07673       -1.41871        0.67808
O         -0.11936        0.37306        2.04351
H         -5.55017        0.50098       -1.42283
H         -4.37417        1.45551       -0.48280
H         -4.20599       -0.44737        1.25747
H         -5.37464       -1.41762        0.31832
H         -3.83687       -1.40393       -1.73097
H         -1.84863       -0.04930       -1.67890
H         -1.82438        1.47384        0.15616
H         -2.39564        0.18751        1.24552
H          0.61368        0.28582       -1.26945
H          1.32968        2.57611       -0.69786
H          0.62196        2.44921        0.77219
H          2.17005       -0.92900        0.38527
H          2.41682        0.59664        1.23951
H          3.04025        0.11935       -1.75595
H          3.31492        1.64206       -0.90252
H          4.85512        0.35745        0.73392
H          5.44479        0.56826       -0.91760
H          5.82954       -1.77781       -0.12344
H          4.71126       -1.78245       -1.49253
H          4.09679       -1.99977        0.14685
H         -0.86686       -1.93045        0.37255
H          0.34408       -0.34279        2.53382
