57
omegacsd_SPIRIL_21.log	Energy:     -31.9705929
C         -3.36056       -0.70034       -1.30304
C         -3.13666       -0.94557        0.19373
C         -4.51739       -1.28612        0.85040
O         -5.38417       -2.02818        0.44708
N         -4.60628       -0.55853        2.04051
C         -3.37763        0.24210        2.29529
N         -2.62354        0.24414        0.98994
C         -2.64384        1.53692        0.31916
C         -1.41339        1.99921       -0.17577
C         -1.34072        3.25557       -0.78052
C         -2.48543        4.05083       -0.89591
C         -3.71116        3.58442       -0.40880
C         -3.79913        2.32933        0.19686
C         -2.16742       -2.11918        0.45779
C         -1.82792       -2.88069       -0.83401
N         -1.28590       -2.03453       -1.93175
C          0.18136       -1.78656       -1.83177
C          0.66676       -0.95916       -0.62709
C          2.14783       -0.76776       -0.62523
C          2.83308       -0.22924        0.39724
C          4.30593       -0.07263        0.31748
C          4.87354        0.75725       -0.66358
C          6.25912        0.91489       -0.74487
C          7.05133        0.22145        0.17407
C          6.52203       -0.61400        1.16234
C          5.13425       -0.75308        1.22625
F          8.37730        0.36365        0.10547
C          2.19977        0.23783        1.66953
C         -2.07266       -0.77468       -2.13408
H         -4.08128       -1.46845       -1.67369
H         -3.86269        0.26984       -1.48479
H         -5.37958       -0.58951        2.68552
H         -2.72697       -0.26647        3.04834
H         -3.62190        1.26114        2.66446
H         -0.52101        1.36575       -0.08966
H         -0.38622        3.61739       -1.16210
H         -2.42325        5.03058       -1.36579
H         -4.60419        4.20162       -0.50473
H         -4.75844        1.96811        0.56379
H         -1.22581       -1.72925        0.91116
H         -2.58639       -2.81882        1.20422
H         -2.74496       -3.37330       -1.23609
H         -1.11048       -3.69881       -0.61186
H          0.49159       -1.29140       -2.77966
H          0.68247       -2.78081       -1.82874
H          0.15913        0.03798       -0.61623
H          0.33366       -1.44591        0.31942
H          2.66968       -1.09766       -1.52527
H          4.22725        1.28472       -1.36532
H          6.70355        1.55817       -1.50223
H          7.16841       -1.14193        1.86121
H          4.68905       -1.39795        1.98405
H          1.85418       -0.61315        2.27330
H          1.32471        0.87453        1.47627
H          2.89024        0.82272        2.29147
H         -2.33955       -0.76267       -3.21739
H         -1.46003        0.13398       -1.94925
