66
omegapdb_1z1r_23.log	Energy:    -259.5041493
C         -0.25258       -0.23786        1.97511
C         -1.00950       -1.41450        2.63936
C         -2.02678       -2.04306        1.72900
C         -3.39792       -1.84706        1.96295
C         -4.33734       -2.23816        1.00864
C         -3.87987       -2.83347       -0.17429
C         -2.52678       -3.14120       -0.37803
C         -1.60424       -2.75074        0.59017
O         -4.83039       -3.13473       -1.14932
C         -4.75399       -2.28618       -2.33096
C         -5.11031       -0.83870       -1.99740
C         -3.89984        0.02653       -1.61721
C         -4.30399        1.10897       -0.63996
O         -5.42458        1.25653       -0.19000
N         -3.30537        1.97783       -0.13974
C         -1.94535        2.13496       -0.67330
C         -0.84957        1.56765        0.28176
O          0.30070        1.99582        0.19744
N         -1.20896        0.55499        1.13772
C         -1.63341        3.61270       -0.96738
C         -1.65943        4.45847        0.29627
O         -2.69322        4.88651        0.78399
N         -0.42324        4.74684        0.86242
C          0.95051       -0.71061        1.10038
O          1.27978       -2.02865        1.55238
C          2.19902        0.19502        1.29061
N          2.86545        0.57145        0.02659
S          3.64300       -0.65363       -0.88840
O          3.31592       -0.37045       -2.27047
O          3.26031       -1.94250       -0.30894
C          5.32340       -0.39928       -0.60601
C          6.02838        0.52745       -1.38149
C          7.39119        0.73619       -1.15027
C          8.04632        0.01503       -0.14592
C          7.34283       -0.91755        0.62484
C          5.98037       -1.12569        0.39326
H          0.13170        0.43522        2.78877
H         -1.47789       -1.06660        3.58077
H         -0.25812       -2.18395        2.95329
H         -3.73634       -1.36758        2.88123
H         -5.40332       -2.07074        1.15649
H         -2.21400       -3.67451       -1.27228
H         -0.53950       -2.97440        0.46486
H         -3.76169       -2.39884       -2.79582
H         -5.52395       -2.76578       -2.96677
H         -5.65128       -0.37473       -2.84523
H         -5.85019       -0.83854       -1.15831
H         -3.10598       -0.60511       -1.15893
H         -3.45009        0.46974       -2.52787
H         -3.63715        2.75072        0.46670
H         -1.82741        1.55582       -1.63382
H         -2.19548        0.27856        1.21012
H         -2.38535        4.02629       -1.67629
H         -0.65423        3.68714       -1.48909
H          0.40217        4.20708        0.62227
H         -0.38667        5.24714        1.73902
H          0.65103       -0.77870        0.02987
H          2.00964       -2.41165        0.96620
H          2.92092       -0.32221        1.96320
H          1.91241        1.14634        1.80287
H          2.29289        1.26595       -0.49147
H          5.51983        1.08333       -2.17643
H          7.94171        1.45728       -1.75334
H          9.10998        0.17813        0.03502
H          7.85607       -1.48289        1.40184
H          5.43247       -1.86583        0.98724
