61
omegapdb_1v2k_02.log	Energy:     -57.7006946
N         -9.31405       -2.86253        0.70391
C         -9.26782       -1.57674        1.14920
C         -8.31031       -0.65093        0.72892
C         -7.33558       -1.04781       -0.21958
C         -7.37854       -2.38537       -0.68393
C         -8.37499       -3.24014       -0.20549
N         -6.43480       -0.10812       -0.77632
C         -6.12648        1.12490        0.00582
C         -5.06903        0.86716        1.09360
C         -3.78712        0.23831        0.51572
C         -4.10779       -0.96676       -0.38884
C         -5.19401       -0.62312       -1.42478
C         -3.00389        1.27798       -0.29230
O         -3.52862        2.13281       -0.99403
N         -1.60845        1.24207       -0.21901
C         -0.81767        2.24312       -0.99034
C          0.54779        1.65940       -1.38574
N          1.36116        1.22780       -0.21406
C          0.53964        0.76950        0.94654
C         -0.82232        0.20767        0.49718
S          2.68786        2.26354        0.22003
O          2.38617        2.85048        1.51152
O          2.93753        3.10771       -0.93223
C          3.99111        1.13909        0.40651
C          4.63825        0.62807       -0.69202
C          5.71242       -0.30042       -0.52955
C          6.10280       -0.68289        0.78311
C          5.41678       -0.12411        1.90761
C          4.38897        0.76581        1.72149
C          7.17566       -1.61546        0.94936
C          7.80174       -2.11459       -0.16371
C          7.42854       -1.74132       -1.48702
C          6.40169       -0.84910       -1.65984
Cl         9.09516       -3.24001        0.01567
H        -10.03904       -1.29747        1.87702
H         -8.32973        0.36453        1.11462
H         -6.66258       -2.74401       -1.41711
H         -8.43831       -4.27864       -0.55167
H         -7.05622        1.54127        0.44763
H         -5.74207        1.88976       -0.71902
H         -4.82836        1.82035        1.60352
H         -5.48424        0.19376        1.86923
H         -3.16543       -0.11782        1.37886
H         -4.45223       -1.81086        0.24255
H         -3.19599       -1.32017       -0.90451
H         -5.43054       -1.50603       -2.05661
H         -4.82964        0.17789       -2.11405
H         -1.39595        2.54982       -1.89603
H         -0.69839        3.16191       -0.37089
H          1.10895        2.40406       -2.00346
H          0.40888        0.76066       -2.03244
H          0.37794        1.59187        1.68848
H          1.11370       -0.03455        1.46258
H         -0.66954       -0.67230       -0.17089
H         -1.39118       -0.14732        1.38962
H          4.35166        0.92512       -1.70753
H          5.73057       -0.41369        2.91052
H          3.87052        1.21091        2.57958
H          7.47767       -1.91112        1.95446
H          7.96488       -2.16857       -2.33525
H          6.09451       -0.54180       -2.66117
