50
omegapdb_1xom_19.log	Energy:    -139.4985887
O         -6.11621        0.49042       -0.03979
C         -5.17138        1.48059        0.13296
O         -5.58641        2.60251        0.26207
C         -3.71098        1.05067        0.14112
C         -3.44461        0.08457        1.30759
C         -1.98774       -0.38692        1.31023
C         -1.57221       -1.01654       -0.04752
C         -1.87254       -0.03720       -1.21517
C         -3.32968        0.43353       -1.21494
C         -2.39697       -2.22469       -0.25338
N         -3.07842       -3.14340       -0.41264
C         -0.08363       -1.35582       -0.02463
C          0.38113       -2.65592       -0.16488
C          1.76326       -2.93941       -0.13851
C          2.67297       -1.90893        0.03030
O          4.04244       -2.01077        0.08038
C          4.60914       -3.33729       -0.06308
C          2.20026       -0.55742        0.17692
C          0.84009       -0.29437        0.14797
O          3.20832        0.35207        0.33959
C          2.87175        1.76900        0.52733
C          2.48464        2.41090       -0.81393
C          3.35796        3.66888       -0.94714
C          4.59587        3.44007       -0.05885
C          4.21601        2.36606        0.97392
H         -5.75427       -0.42143       -0.14343
H         -3.09559        1.97700        0.29745
H         -3.67469        0.58460        2.27094
H         -4.12568       -0.78869        1.25495
H         -1.31590        0.46349        1.54043
H         -1.82634       -1.12053        2.12554
H         -1.62971       -0.52420       -2.18097
H         -1.19395        0.83580       -1.14481
H         -4.00177       -0.41297       -1.46178
H         -3.47942        1.17850       -2.02337
H         -0.30134       -3.49549       -0.29922
H          2.09045       -3.96970       -0.25168
H          4.36019       -3.75592       -1.04206
H          5.68394       -3.12336        0.01088
H          4.28147       -3.98367        0.75573
H          0.47428        0.72329        0.25575
H          2.08351        1.83986        1.29858
H          1.41259        2.65024       -0.87243
H          2.69504        1.69991       -1.63752
H          3.64392        3.85060       -1.99629
H          2.80265        4.56415       -0.61612
H          4.91665        4.37402        0.43048
H          5.45059        3.09853       -0.67027
H          4.98264        1.56403        1.02073
H          4.14453        2.78329        1.99114
