24
omegapdb_1gs5_13.log	Energy:    -239.5349293
C         -0.60387        0.51927        0.76859
C         -0.78931        1.72828       -0.16620
O         -1.70028        2.02399       -0.89432
O          0.29131        2.57555       -0.03620
C          0.51631       -0.39785        0.24412
C          1.89666        0.17706        0.56029
C          2.97021       -0.57401       -0.16623
O          3.02514       -0.98399       -1.29883
O          4.04635       -0.76052        0.67941
N         -1.89457       -0.18035        0.90594
C         -2.37962       -1.10721       -0.05112
O         -1.66201       -1.54936       -0.92342
C         -3.80707       -1.51575        0.16683
H         -0.31801        0.91714        1.78515
H          0.23201        3.36985       -0.63406
H          0.40479       -1.41003        0.69070
H          0.39679       -0.57647       -0.85364
H          2.09550        0.17285        1.65494
H          1.95458        1.25404        0.25530
H          4.80048       -1.23891        0.24368
H         -2.54958        0.25706        1.55172
H         -4.06034       -2.35689       -0.50217
H         -4.01257       -1.84867        1.19192
H         -4.50563       -0.70163       -0.07592
