36
omegapdb_1qxw_20.log	Energy:    -105.2797875
C          3.31506        0.33697        0.83609
C          3.72512        0.30342       -0.62225
C          2.87424       -0.82401       -0.04984
N          1.46095       -0.84467       -0.46785
C          0.62113       -1.61511        0.49400
C         -0.85568       -1.54170        0.05112
C         -1.42063       -0.13717       -0.29770
N         -2.79291       -0.35738       -0.83669
C         -1.34969        0.79422        0.92519
C         -1.81019        2.22655        0.63506
C         -1.03208        2.92562       -0.49042
C          0.46987        2.99920       -0.22839
O         -0.97183       -2.46552       -1.02162
O         -1.66951       -2.06470        1.11085
H          4.05506        0.16530        1.61229
H          2.57365        1.06756        1.15841
H          3.27162        1.01275       -1.31408
H          4.75896        0.10641       -0.89194
H          3.34402       -1.80487        0.11200
H          1.38406       -1.27027       -1.40356
H          0.91366       -2.68428        0.58818
H          0.71714       -1.16553        1.50833
H         -0.78664        0.28697       -1.12588
H         -3.17829        0.51477       -1.18851
H         -3.41313       -0.68329       -0.09478
H         -1.94760        0.36522        1.75477
H         -0.30208        0.81819        1.29358
H         -2.88976        2.23690        0.39118
H         -1.71348        2.82004        1.56725
H         -1.21246        2.40597       -1.45237
H         -1.43620        3.94937       -0.62174
H          0.69077        3.45558        0.74187
H          0.97848        3.59040       -0.99701
H          0.92505        1.99674       -0.23336
H         -1.78591       -2.29389       -1.56525
H         -1.71521       -3.04179        1.06139
