40
omegapdb_2byh_08.log	Energy:     -91.1222623
O          6.14499        1.27951       -1.33515
C          5.81649        0.47031       -0.48927
C          6.81927       -0.05666        0.49918
C          4.41554       -0.02600       -0.40145
C          3.48174        0.47818       -1.32659
C          2.15603        0.06068       -1.30441
C          1.74240       -0.88408       -0.33647
C          2.66845       -1.39551        0.59185
C          3.99171       -0.96394        0.55194
N          0.37229       -1.27242       -0.34774
C         -0.24440       -2.21716        0.51873
O          0.38130       -2.81624        1.36935
C         -1.67795       -2.39467        0.25944
C         -2.31974       -3.68075        0.23255
N         -3.64001       -3.53393       -0.04076
N         -3.86290       -2.19299       -0.16244
C         -2.69306       -1.44925        0.01064
C         -2.66576        0.00323       -0.03079
C         -1.80886        0.71887        0.83269
C         -1.75308        2.10555        0.78832
Cl        -0.71374        2.97296        1.82252
C         -2.56868        2.81892       -0.12489
O         -2.43501        4.16831       -0.09740
C         -3.44850        2.14728       -0.98162
C         -3.48916        0.74778       -0.90602
O         -4.35439        0.02035       -1.67870
H          7.80871        0.39413        0.32438
H          6.94115       -1.14404        0.41810
H          6.53629        0.17617        1.53330
H          3.81793        1.21014       -2.06998
H          1.45215        0.46261       -2.02817
H          2.35222       -2.13167        1.33966
H          4.69799       -1.37003        1.27841
H         -0.20729       -0.84907       -1.08011
H         -1.84944       -4.63945        0.40255
H         -4.77974       -1.83904       -0.41257
H         -1.18059        0.17232        1.54796
H         -3.02523        4.62731       -0.75546
H         -4.08115        2.68975       -1.67413
H         -4.86482        0.58384       -2.31800
