34
omegapdb_2f7p_15.log	Energy:    -114.2244467
C         -0.97659       -0.01867       -0.83911
N          0.43018       -0.41155       -0.64195
C          1.39406        0.73150       -0.67794
C          2.75945        0.25794       -0.24070
C          3.34328       -0.86796       -0.84074
C          4.61456       -1.29078       -0.44532
C          5.31135       -0.59142        0.54587
C          4.73132        0.53159        1.14368
C          3.45733        0.95633        0.75508
C         -1.87789       -1.29211       -0.79087
O         -1.53326       -2.18762        0.26795
C         -3.29672       -0.74708       -0.46908
O         -4.08642       -1.71066        0.21731
C         -3.02567        0.43596        0.51189
O         -2.93272       -0.10878        1.84094
C         -1.60991        0.94754        0.20248
S         -1.65246        2.66207       -0.37284
H         -1.05202        0.42212       -1.86919
H          0.54793       -0.96263        0.21723
H          1.44914        1.09491       -1.73268
H          1.06584        1.60438       -0.06993
H          2.79543       -1.41335       -1.61062
H          5.06356       -2.16662       -0.91094
H          6.30234       -0.92098        0.85098
H          5.27180        1.07732        1.91519
H          3.01361        1.83073        1.22699
H         -1.80013       -1.92267       -1.69727
H         -1.53940       -1.70160        1.14201
H         -3.88725       -0.45496       -1.35707
H         -3.51146       -2.48226        0.50208
H         -3.82060        1.20605        0.50580
H         -3.75762       -0.63100        2.03301
H         -1.01760        0.95924        1.15564
H         -2.22379        2.48849       -1.58312
