39
omegacsd_FIBREN_07.log	Energy:     -54.1532490
N          2.99424       -1.08320        1.60575
C          1.71904       -0.99479        2.13212
N          0.61792       -0.47726        1.50118
C          0.73791        0.03970        0.22089
C          2.01048       -0.01945       -0.40913
C          3.08470       -0.59114        0.35062
O          4.22629       -0.55606       -0.41945
C          3.78376        0.05871       -1.66637
N          2.50619        0.37245       -1.67181
C          4.85870        0.19718       -2.65151
N         -0.34337        0.62544       -0.39275
C         -1.70397        0.61404        0.20909
C         -2.41801        1.93558       -0.14150
C         -1.82430        3.08947        0.61079
O         -1.65368        3.24607        1.79380
O         -1.47795        4.08315       -0.27794
C         -2.47475       -0.59235       -0.29802
C         -3.03650       -0.62442       -1.58156
C         -3.72812       -1.75984       -2.01339
C         -3.85614       -2.86809       -1.16994
C         -3.28510       -2.84225        0.10641
C         -2.59267       -1.70927        0.54205
C          1.52239       -1.52296        3.51154
H          5.69717        0.79573       -2.25348
H          5.27288       -0.78539       -2.93886
H          4.49961        0.69208       -3.57116
H         -0.25439        0.89136       -1.37536
H         -1.59745        0.55425        1.33711
H         -3.49768        1.84981        0.12509
H         -2.40233        2.13763       -1.23597
H         -1.07204        4.87571        0.16663
H         -2.93586        0.22803       -2.25028
H         -4.16549       -1.78167       -3.01045
H         -4.39602       -3.75117       -1.50815
H         -3.37607       -3.70732        0.76204
H         -2.13118       -1.69786        1.53209
H          0.98962       -2.48733        3.48884
H          2.48385       -1.68810        4.02696
H          0.91882       -0.83357        4.12440
