66
omegapdb_1z1r_20.log	Energy:    -259.3251675
C         -0.06879        0.62147       -1.58308
C         -0.39939       -0.86209       -1.87922
C          0.73332       -1.75492       -1.45937
C          0.56925       -2.63652       -0.37882
C          1.67408       -3.27861        0.18194
C          2.94080       -3.03070       -0.36501
C          3.11171       -2.25052       -1.51676
C          1.99534       -1.62418       -2.06711
O          4.01814       -3.61720        0.29860
C          5.07184       -2.69182        0.68137
C          4.54598       -1.74265        1.76452
C          5.40569       -0.49346        1.94450
C          5.52310        0.34921        0.69114
O          6.55791        0.42980        0.05137
N          4.45140        1.16150        0.27370
C          3.04803        1.02102        0.70156
C          2.16236        1.10053       -0.57503
O          2.61755        1.49916       -1.63501
N          0.83469        0.74579       -0.40625
C          2.65175        2.12032        1.70575
C          2.06719        3.35857        1.04431
O          0.86398        3.57912        1.01197
N          2.96907        4.26331        0.50655
C         -1.35184        1.46890       -1.35354
O         -1.03231        2.85298       -1.45521
C         -2.06498        1.19804       -0.00580
N         -3.54122        1.23870       -0.10479
S         -4.30823       -0.19085       -0.69086
O         -4.83994        0.11499       -2.00281
O         -3.32103       -1.25389       -0.54712
C         -5.61073       -0.42901        0.41347
C         -6.91723       -0.11965        0.01848
C         -7.97832       -0.31262        0.90713
C         -7.73079       -0.81668        2.18906
C         -6.42525       -1.13095        2.58243
C         -5.36423       -0.93787        1.69258
H          0.46839        1.06745       -2.47305
H         -1.35024       -1.17272       -1.37725
H         -0.61358       -0.98233       -2.96116
H         -0.42532       -2.80456        0.03844
H          1.57208       -3.95233        1.02921
H          4.09546       -2.13258       -1.96644
H          2.11164       -0.99184       -2.94961
H          5.45457       -2.16359       -0.20899
H          5.84296       -3.38935        1.05733
H          3.49668       -1.44913        1.52281
H          4.47466       -2.28754        2.72854
H          5.02341        0.11820        2.78650
H          6.43946       -0.78764        2.24430
H          4.58140        1.65103       -0.63133
H          2.89657        0.01116        1.18929
H          0.50132        0.34406        0.46468
H          1.89115        1.72604        2.41439
H          3.52443        2.38965        2.33865
H          3.94333        4.03997        0.37711
H          2.62387        5.05418       -0.02203
H         -2.03797        1.32546       -2.22642
H         -0.41149        3.13613       -0.73011
H         -1.75708        0.21577        0.42286
H         -1.75018        1.97899        0.73147
H         -3.86278        2.14261       -0.48340
H         -7.11088        0.26642       -0.98993
H         -8.99592       -0.07287        0.60073
H         -8.55902       -0.96700        2.88340
H         -6.23543       -1.52709        3.57904
H         -4.34542       -1.19269        1.99898
