36
omegapdb_1qxw_07.log	Energy:    -107.0563668
C         -4.34208       -1.23522        0.57599
C         -3.92667       -1.54727       -0.84991
C         -3.10908       -0.56656       -0.00987
N         -1.80126       -0.92471        0.54466
C         -0.67400       -0.48842       -0.32850
C         -0.33881        0.99236       -0.02034
C          1.08451        1.45511       -0.46974
N          1.11798        2.93610       -0.29910
C          2.19798        0.73131        0.31729
C          2.66011       -0.56307       -0.35936
C          3.78084       -1.24473        0.43779
C          4.23784       -2.54079       -0.22712
O         -0.42718        1.32137        1.35539
O         -1.35123        1.72954       -0.69834
H         -5.23106       -0.63566        0.75877
H         -4.24008       -1.99810        1.34378
H         -3.53287       -2.52989       -1.08823
H         -4.52245       -1.17067       -1.67718
H         -3.14813        0.50923       -0.27093
H         -1.73163       -1.92978        0.73073
H         -0.89350       -0.57977       -1.41593
H          0.22328       -1.11982       -0.11653
H          1.18093        1.24454       -1.56719
H          1.01909        3.18035        0.68711
H          2.00257        3.31557       -0.62194
H          1.84036        0.52169        1.34885
H          3.06718        1.40523        0.44534
H          3.00665       -0.35394       -1.38969
H          1.79918       -1.26110       -0.46165
H          4.64173       -0.55547        0.54320
H          3.43562       -1.45466        1.46962
H          4.62019       -2.36424       -1.23903
H          5.04150       -3.01688        0.34668
H          3.42058       -3.26631       -0.30703
H         -1.23445        0.91388        1.76592
H         -1.17836        2.70249       -0.65731
