24
omegapdb_1gs5_02.log	Energy:    -244.8799526
C         -0.68403        0.64111        0.56029
C         -0.88098        1.82138       -0.39940
O         -0.23237        2.16247       -1.36052
O         -1.97039        2.54810       -0.00256
C          0.68061        0.75233        1.26961
C          1.90120        0.86795        0.35452
C          2.41210       -0.46215       -0.10739
O          1.85394       -1.35878       -0.70257
O          3.73973       -0.59313        0.21711
N         -0.84140       -0.59130       -0.22197
C         -1.81713       -1.54143        0.14019
O         -2.59021       -1.31340        1.05299
C         -1.81670       -2.78150       -0.70044
H         -1.50750        0.67836        1.34746
H         -2.16890        3.31882       -0.60225
H          0.65411        1.63881        1.94080
H          0.79093       -0.12125        1.94951
H          1.66663        1.48643       -0.55341
H          2.71374        1.42488        0.87703
H          4.13448       -1.45380       -0.09368
H         -0.08647       -0.82306       -0.88148
H         -2.55357       -3.50326       -0.31173
H         -2.09080       -2.57020       -1.74447
H         -0.83888       -3.28483       -0.71372
