36
omegapdb_1qxw_26.log	Energy:    -103.8123453
C          4.87843       -0.75369        0.93705
C          4.67115        0.71262        0.61195
C          3.90117       -0.36055       -0.15991
N          2.47296       -0.60297        0.05210
C          1.62671        0.37583       -0.68861
C          0.14382       -0.05433       -0.58145
C         -0.68817        0.69728        0.51341
N         -0.88777        2.13043        0.18732
C         -2.03484        0.00350        0.79948
C         -3.05946        0.06689       -0.33923
C         -4.28787       -0.81277       -0.06350
C         -5.19559       -0.23922        1.02166
O         -0.36951        0.20356       -1.89124
O         -0.04183       -1.43407       -0.34001
H          5.81243       -1.24090        0.66373
H          4.51340       -1.15214        1.88136
H          5.45961        1.26982        0.11299
H          4.15639        1.34967        1.32529
H          4.18013       -0.55013       -1.20846
H          2.23350       -0.58782        1.05125
H          1.75778        1.42591       -0.35463
H          1.91499        0.36319       -1.76956
H         -0.08323        0.65390        1.46142
H         -1.51560        2.23706       -0.60672
H         -0.00997        2.57101       -0.07597
H         -1.82610       -1.05919        1.05316
H         -2.47429        0.46256        1.70923
H         -2.58569       -0.26515       -1.29183
H         -3.38120        1.11416       -0.50324
H         -4.86575       -0.93171       -1.00182
H         -3.96402       -1.83421        0.21977
H         -6.07577       -0.87252        1.17819
H         -4.67403       -0.15788        1.98247
H         -5.55241        0.76392        0.76123
H         -1.25328       -0.24287       -2.00369
H          0.69536       -1.97830       -0.71524
