24
omegapdb_1gs5_10.log	Energy:    -236.8732624
C         -0.60086        0.21371        0.14895
C         -0.49339        1.71367       -0.14514
O         -0.96614        2.36385       -1.04207
O          0.29236        2.31512        0.81210
C          0.64768       -0.51299       -0.38601
C          1.86120       -0.26410        0.51229
C          3.13107       -0.71513       -0.16088
O          3.28160       -1.10162       -1.28928
O          4.26645       -0.66547        0.62629
N         -1.82356       -0.29144       -0.49587
C         -2.85452       -0.86087        0.27855
O         -2.71259       -0.98765        1.48036
C         -4.06150       -1.28472       -0.50008
H         -0.68857        0.06401        1.27091
H          0.38167        3.29848        0.67595
H          0.87264       -0.20983       -1.43193
H          0.43982       -1.60429       -0.44531
H          1.93670        0.82191        0.76663
H          1.72810       -0.78364        1.48538
H          4.13928       -0.34674        1.54514
H         -1.92417       -0.11668       -1.49299
H         -4.56097       -0.43871       -0.99377
H         -3.82750       -2.03220       -1.27086
H         -4.80351       -1.74343        0.17669
