50
omegapdb_1xom_11.log	Energy:    -143.5247306
O         -6.89721        0.52726       -0.85039
C         -5.88761       -0.12426       -0.17318
O         -6.16084       -0.83534        0.76251
C         -4.55344        0.23166       -0.79776
C         -3.76434        1.12594        0.18147
C         -2.91395        0.28553        1.13612
C         -1.81038       -0.50056        0.37690
C         -2.28184       -0.86010       -1.06337
C         -3.79486       -1.06825       -1.13640
C         -1.58144       -1.75155        1.13149
N         -1.41336       -2.73006        1.72030
C         -0.47996        0.24437        0.26358
C         -0.36543        1.61073        0.51590
C          0.86681        2.26720        0.37243
C          1.99384        1.55893       -0.03500
O          3.24997        2.10648       -0.22336
C          3.43974        3.49092        0.15794
C          1.89077        0.16052       -0.30084
C          0.65685       -0.47785       -0.14433
O          2.87103       -0.67185       -0.76778
C          4.28612       -0.30028       -0.62975
C          5.00007       -1.44990       -1.35914
C          5.94803       -2.10525       -0.34007
C          5.99041       -1.18322        0.89455
C          4.71330       -0.33102        0.84467
H         -7.79974        0.33564       -0.48185
H         -4.73994        0.80961       -1.74027
H         -3.11860        1.81303       -0.40260
H         -4.45052        1.77785        0.75651
H         -2.46665        0.91579        1.92736
H         -3.58069       -0.42531        1.67583
H         -1.75514       -1.76665       -1.42075
H         -1.97668       -0.05064       -1.75762
H         -4.08997       -1.88101       -0.43639
H         -4.08257       -1.41956       -2.14566
H         -1.22701        2.19649        0.83209
H          0.92195        3.33315        0.57805
H          3.22743        3.62846        1.22178
H          2.82687        4.14395       -0.46995
H          4.50747        3.63349       -0.05329
H          0.60640       -1.55017       -0.34283
H          4.42624        0.68579       -1.11591
H          5.54394       -1.07786       -2.24203
H          4.25287       -2.17620       -1.73834
H          5.57541       -3.10656       -0.05896
H          6.95399       -2.25421       -0.76393
H          6.05025       -1.76487        1.82891
H          6.88767       -0.54063        0.86844
H          4.86902        0.68435        1.24276
H          3.91190       -0.78723        1.45741
