66
omegapdb_1z1r_16.log	Energy:    -261.1279835
C          0.25185        0.13285        0.48485
C          0.30735       -1.07655       -0.47885
C         -1.02820       -1.75798       -0.56432
C         -1.43914       -2.64827        0.44306
C         -2.72422       -3.18549        0.43147
C         -3.59707       -2.82235       -0.60802
C         -3.19171       -1.98209       -1.65312
C         -1.89925       -1.45597       -1.62292
O         -4.85469       -3.40298       -0.54639
C         -5.99373       -2.53735       -0.81232
C         -6.19767       -1.56812        0.34994
C         -5.59242       -0.18186        0.10233
C         -5.39552        0.54039        1.41756
O         -6.12545        0.41635        2.38496
N         -4.33891        1.46904        1.53164
C         -3.28267        1.68347        0.53295
C         -1.93143        1.17058        1.10268
O         -1.75914        0.97170        2.29418
N         -0.92917        0.97586        0.16353
C         -3.18664        3.18510        0.19117
C         -2.63616        3.38627       -1.20392
O         -2.32170        2.46948       -1.95150
N         -2.50572        4.70090       -1.63272
C          1.52883        1.01443        0.38869
O          1.86288        1.07584       -0.99651
C          2.72117        0.41981        1.18778
N          3.46832       -0.63040        0.46119
S          4.56556       -0.08038       -0.75691
O          4.43447       -1.01012       -1.85540
O          4.34650        1.35536       -0.95620
C          6.11019       -0.27507       -0.00778
C          6.75566        0.83010        0.55682
C          8.00451        0.67328        1.16431
C          8.60683       -0.58952        1.20310
C          7.96493       -1.69354        0.63182
C          6.71556       -1.53535        0.02399
H          0.14408       -0.23299        1.54560
H          0.64674       -0.73264       -1.48554
H          1.09450       -1.78232       -0.14333
H         -0.75745       -2.90589        1.25310
H         -3.06631       -3.86465        1.20958
H         -3.86198       -1.75630       -2.47743
H         -1.57116       -0.79642       -2.42850
H         -6.80248       -3.29247       -0.87114
H         -5.87492       -2.04474       -1.78954
H         -7.27679       -1.46521        0.58618
H         -5.75448       -2.01859        1.26908
H         -6.26215        0.42272       -0.54432
H         -4.63382       -0.27271       -0.45665
H         -4.11852        1.79690        2.48172
H         -3.51828        1.10152       -0.40998
H         -1.08024        1.17881       -0.83557
H         -4.19880        3.64469        0.27171
H         -2.57047        3.71771        0.94580
H         -2.13271        4.89080       -2.55288
H         -2.73038        5.49837       -1.06703
H          1.31110        2.04355        0.75779
H          2.57108        1.77431       -1.16749
H          3.41790        1.24125        1.47264
H          2.36116       -0.01328        2.15063
H          2.82665       -1.38773        0.15971
H          6.28916        1.82077        0.51330
H          8.50885        1.53282        1.60346
H          9.58137       -0.71267        1.67780
H          8.43747       -2.67461        0.65738
H          6.22081       -2.39829       -0.43368
