45
omegacsd_SEYMIS_12.log	Energy:     -71.2412970
O          4.35181       -2.75505        0.27344
N          4.71141       -1.41800        0.11771
C          3.59326       -0.68830       -0.00885
C          2.43492       -1.56606        0.07405
C          0.99354       -1.28096       -0.01521
O          0.18545       -2.11184       -0.40241
N          0.60347       -0.00463        0.41657
C         -0.73884        0.44938        0.38919
C         -1.13997        1.74689        0.80739
N         -2.50992        1.82918        0.64361
C         -3.31106        3.01292        0.96441
C         -2.98808        0.61768        0.13063
C         -1.88974       -0.25415       -0.03241
C         -4.39539        0.36105       -0.16317
O         -5.34158        1.11268       -0.00790
O         -4.55172       -0.89898       -0.68165
C         -5.91303       -1.33308       -1.00626
C         -6.63450       -1.74494        0.25947
C          2.95977       -2.83835        0.23417
C          2.37664       -4.17144        0.36306
C          3.60881        0.76445       -0.22129
C          2.92066        1.31658       -1.31440
C          2.94122        2.69797       -1.51772
C          3.64639        3.52798       -0.63896
C          4.33742        2.97609        0.44436
C          4.32488        1.59462        0.65517
H          1.29840        0.66048        0.75751
H         -0.53529        2.54786        1.18684
H         -3.22000        3.27537        2.03323
H         -2.99709        3.88053        0.35766
H         -4.39241        2.83131        0.75504
H         -1.92959       -1.26607       -0.40896
H         -5.69542       -2.18054       -1.68259
H         -6.42622       -0.51691       -1.54488
H         -7.58913       -2.23502        0.03691
H         -6.84860       -0.87308        0.89579
H         -6.03062       -2.44061        0.85732
H          2.33074       -4.50461        1.41425
H          1.33083       -4.17330       -0.02164
H          2.93840       -4.93734       -0.19631
H          2.37618        0.66723       -2.00209
H          2.40966        3.12805       -2.36633
H          3.66197        4.60488       -0.80300
H          4.89396        3.62203        1.12264
H          4.87653        1.15947        1.48979
