46
omegacsd_CDBMPI10_05.log	Energy:     -38.7298887
O          2.50508        2.48529        0.48586
C          2.49355        1.32580        0.10032
N          1.27940        0.70830       -0.21782
C          0.00470        1.45629        0.02091
C         -1.17530        0.70762       -0.64493
N         -1.27939       -0.70823       -0.21789
C         -0.00469       -1.45625        0.02069
C          1.17529       -0.70747       -0.64508
C          0.23267       -1.69700        1.51268
C         -2.49353       -1.32579        0.10017
O         -2.50505       -2.48533        0.48555
C         -3.74457       -0.52163       -0.10003
C         -4.32100        0.13817        0.99226
C         -5.51185        0.84914        0.81715
C         -6.12279        0.89535       -0.44057
C         -5.54619        0.22812       -1.52662
C         -4.35475       -0.48392       -1.35953
C         -0.23261        1.69681        1.51295
C          3.74456        0.52163       -0.09996
C          4.32085       -0.13849        0.99221
C          5.51169       -0.84947        0.81703
C          6.12275       -0.89536       -0.44064
C          5.54629       -0.22781       -1.52656
C          4.35487        0.48425       -1.35940
H          0.11769        2.45791       -0.48619
H         -1.05482        0.73092       -1.75389
H         -2.11869        1.25537       -0.41821
H         -0.11769       -2.45779       -0.48657
H          2.11869       -1.25526       -0.41848
H          1.05477       -0.73059       -1.75404
H         -0.57379       -2.31976        1.93308
H          1.17696       -2.21860        1.69272
H          0.25261       -0.75402        2.08267
H         -3.84891        0.08869        1.97336
H         -5.96677        1.36237        1.66327
H         -7.05222        1.44795       -0.57334
H         -6.02798        0.25823       -2.50288
H         -3.90849       -1.01426       -2.20038
H         -0.25254        0.75375        2.08279
H          0.57386        2.31951        1.93343
H         -1.17689        2.21839        1.69310
H          3.84866       -0.08926        1.97327
H          5.96650       -1.36295        1.66305
H          7.05217       -1.44797       -0.57347
H          6.02818       -0.25767       -2.50278
H          3.90873        1.01484       -2.20016
