35
omegacsd_DIAVER_05.log	Energy:     -19.6820487
N         -4.23918        0.44676       -1.01414
C         -4.38710        0.42867        0.36652
N         -3.46275       -0.08127        1.25845
C         -2.30541       -0.59555        0.71988
C         -2.06424       -0.59044       -0.68958
C         -3.07487       -0.05504       -1.49778
C         -0.81294       -1.15582       -1.28550
C          0.43669       -0.43602       -0.84224
C          1.56188       -1.19537       -0.44319
C          2.72168       -0.54399       -0.04934
C          2.77588        0.89004       -0.03918
C          1.66616        1.62435       -0.43136
C          0.49579        0.95334       -0.83487
O          3.98966        1.38354        0.38616
C          4.14227        2.82388        0.40250
O          3.89279       -1.13120        0.36828
C          3.95928       -2.57797        0.32988
N         -1.42958       -1.18524        1.62950
N         -5.52302        1.02320        0.89772
H         -2.96916       -0.02204       -2.59086
H         -0.75417       -2.24042       -1.04205
H         -0.86108       -1.11912       -2.39768
H          1.51096       -2.27957       -0.46368
H          1.68174        2.71082       -0.43527
H         -0.37095        1.53931       -1.13962
H          5.17451        2.92922        0.76232
H          4.03633        3.23169       -0.60652
H          3.43532        3.27555        1.10372
H          3.82629       -2.94063       -0.69315
H          3.22939       -3.01249        1.01780
H          4.98491       -2.75764        0.67977
H         -1.60199       -1.01908        2.61422
H         -0.45169       -1.24579        1.37688
H         -5.74787        0.85527        1.86662
H         -6.29089        1.23153        0.27674
