61
omegapdb_1v2k_08.log	Energy:     -60.6333928
N         -7.51144        3.73897       -0.19427
C         -8.01634        2.47521       -0.22884
C         -7.26475        1.33695        0.07050
C         -5.90568        1.48460        0.44476
C         -5.37522        2.79853        0.47854
C         -6.20463        3.87635        0.16245
N         -5.14722        0.37824        0.89173
C         -3.65806        0.49050        0.87730
C         -3.07775        0.22091       -0.51968
C         -3.52088       -1.14698       -1.07092
C         -5.04790       -1.32473       -0.95483
C         -5.56283       -0.98682        0.45560
C         -2.79953       -2.26294       -0.31128
O         -3.28470       -2.86473        0.63660
N         -1.53938       -2.67958       -0.78472
C         -0.73739       -1.91218       -1.77303
C          0.77935       -2.08809       -1.52419
N          1.13490       -2.01766       -0.08431
C          0.44395       -3.07318        0.71618
C         -0.78432       -3.68465        0.00576
S          1.10021       -0.41786        0.59354
O          0.12632        0.37780       -0.14533
O          0.94951       -0.57766        2.02403
C          2.68449        0.16892        0.22178
C          3.78431       -0.30851        0.89278
C          5.08928        0.18406        0.58232
C          5.23192        1.17661       -0.42584
C          4.06629        1.66138       -1.09968
C          2.82554        1.17027       -0.78069
C          6.53765        1.66995       -0.74126
C          7.61912        1.17325       -0.06001
C          7.49726        0.18148        0.95563
C          6.25163       -0.29994        1.26686
Cl         9.20002        1.75371       -0.42625
H         -9.07144        2.39258       -0.51480
H         -7.72614        0.35446        0.03196
H         -4.34067        2.97248        0.76159
H         -5.82405        4.90419        0.18644
H         -3.34450        1.49218        1.24480
H         -3.26519       -0.25101        1.61315
H         -3.40236        1.01669       -1.21867
H         -1.96394        0.29508       -0.48008
H         -3.25825       -1.20311       -2.15655
H         -5.32900       -2.36581       -1.20587
H         -5.54380       -0.67450       -1.70178
H         -6.66753       -1.08692        0.50691
H         -5.13876       -1.71518        1.19451
H         -0.98926       -0.82120       -1.71027
H         -0.99748       -2.26308       -2.79587
H          1.34762       -1.31820       -2.09062
H          1.12521       -3.07387       -1.91505
H          0.14840       -2.67896        1.71965
H          1.19312       -3.87627        0.90835
H         -0.47270       -4.50215       -0.68097
H         -1.46848       -4.14317        0.76431
H          3.68485       -1.06737        1.67750
H          4.18381        2.43005       -1.86372
H          1.92671        1.54861       -1.28297
H          6.65083        2.43121       -1.51372
H          8.39291       -0.17450        1.46656
H          6.12609       -1.05823        2.04202
