25
omegapdb_1m5f_00.log	Energy:    -163.5087245
O          3.08035       -2.05241       -0.66287
C          1.88169       -1.65410       -0.15285
O          1.00669       -2.46055        0.08167
C          1.82226       -0.19022        0.02399
N          2.82582        0.56789        0.49228
O          2.39774        1.86719        0.53427
C          1.06499        1.91678        0.06109
C          0.66061        0.63916       -0.26402
C         -0.64889        0.19580       -0.78849
C         -1.62239       -0.18497        0.34904
N         -1.51489       -1.58083        0.83765
C         -3.07329        0.03206       -0.12468
O         -3.42347        0.90349       -0.88387
O         -4.02755       -0.78656        0.39738
C          0.46829        3.25094        0.02821
H          3.13512       -3.04733       -0.77607
H         -1.10638        1.00692       -1.40939
H         -0.52437       -0.65660       -1.49135
H         -1.47096        0.51618        1.21749
H         -1.28042       -2.22331        0.07599
H         -0.75136       -1.67118        1.50943
H         -3.65845       -1.51154        0.99573
H          0.25531        3.57407       -1.00756
H          1.12653        4.01634        0.47534
H         -0.49117        3.28502        0.57455
