36
omegapdb_1qxw_31.log	Energy:    -105.0083240
C         -4.20785       -1.52299        0.12665
C         -2.96292       -2.06320       -0.54926
C         -2.89730       -0.76349        0.25366
N         -2.76366        0.54982       -0.38268
C         -1.40448        0.78215       -0.94675
C         -0.44360        1.28168        0.15952
C          0.84340        0.42267        0.41798
N          0.51357       -0.93059        0.92535
C          1.69899        0.35868       -0.86124
C          3.20234        0.24963       -0.57215
C          3.60316       -1.12716       -0.02618
C          5.10603       -1.21954        0.22694
O         -1.02455        1.43465        1.44092
O         -0.08285        2.59721       -0.27592
H         -5.01902       -1.12529       -0.47943
H         -4.61169       -2.03188        1.00038
H         -2.89398       -2.04232       -1.63319
H         -2.48715       -2.96001       -0.16021
H         -2.37264       -0.77080        1.22397
H         -3.46879        0.68514       -1.11558
H         -0.97484       -0.10612       -1.45554
H         -1.46859        1.58639       -1.72202
H          1.42339        0.94331        1.22948
H         -0.02989       -1.46102        0.25162
H         -0.03871       -0.85838        1.77888
H          1.38208       -0.48839       -1.49875
H          1.51892        1.27962       -1.45833
H          3.50969        1.03870        0.14101
H          3.76300        0.45682       -1.50515
H          3.28846       -1.91949       -0.73147
H          3.04478       -1.33287        0.91173
H          5.68294       -1.05984       -0.69030
H          5.37819       -2.20580        0.61921
H          5.43787       -0.47464        0.95874
H         -1.96761        1.74191        1.38001
H          0.28697        3.12489        0.46117
