40
omegapdb_2byh_04.log	Energy:     -93.3587577
O          5.99389        2.28408       -0.47217
C          5.82632        1.13054       -0.12768
C          6.97752        0.30058        0.36732
C          4.47763        0.49964       -0.18322
C          3.40374        1.28767       -0.63909
C          2.11735        0.76633       -0.71750
C          1.88899       -0.57495       -0.33263
C          2.95484       -1.37156        0.12317
C          4.23614       -0.82928        0.19421
N          0.55020       -1.05894       -0.42701
C          0.10985       -2.36521       -0.10235
O          0.86920       -3.23128        0.28759
C         -1.33348       -2.58011       -0.27992
C         -1.89709       -3.85678       -0.63179
N         -3.24461       -3.75521       -0.73716
N         -3.55941       -2.45710       -0.44965
C         -2.42306       -1.69644       -0.16904
C         -2.49330       -0.29398        0.19768
C         -2.94906        0.66289       -0.72716
C         -3.02299        2.00176       -0.37206
Cl        -3.57306        3.16724       -1.49608
C         -2.64333        2.42068        0.93142
O         -2.69508        3.70809        1.34533
C         -2.18518        1.49367        1.86953
C         -2.11219        0.14364        1.49426
O         -1.66227       -0.68973        2.46349
H          7.90916        0.88812        0.36096
H          7.14817       -0.58088       -0.26342
H          6.82108       -0.04480        1.39693
H          3.59811        2.32566       -0.93336
H          1.30268        1.39280       -1.07174
H          2.78177       -2.41250        0.41914
H          5.05325       -1.45964        0.55000
H         -0.14006       -0.39114       -0.78735
H         -1.35089       -4.77792       -0.79243
H         -4.52347       -2.14796       -0.45995
H         -3.24104        0.34847       -1.73416
H         -3.02003        4.34436        0.64535
H         -1.88662        1.80890        2.87177
H         -1.57545       -1.64158        2.16352
