41
omegacsd_CEJTIU_12.log	Energy:     -38.0470391
C          5.79456       -0.65842       -1.21460
N          4.97566       -0.68278        0.03130
C          5.79072       -0.29079        1.21565
C          3.68308       -0.07675       -0.06797
C          2.96971       -0.12442       -1.28866
C          1.65697        0.32885       -1.36665
C          1.02373        0.84894       -0.22140
C          1.71841        0.90763        0.99746
C          3.03087        0.45168        1.06939
N         -0.33163        1.30769       -0.37108
C         -1.11635        1.81340        0.66900
O         -0.71803        2.08511        1.78618
N         -2.48800        2.13341        0.35133
C         -3.43523        1.55796       -0.53442
O         -4.54272        2.05752       -0.54290
C         -3.06247        0.37437       -1.40003
C         -2.94555       -0.88826       -0.58873
C         -1.77561       -1.65806       -0.62917
C         -1.69211       -2.83543        0.12155
C         -2.77074       -3.24795        0.90868
C         -3.94018       -2.48020        0.94496
C         -4.03154       -1.30409        0.19816
H          6.72531       -1.22604       -1.05066
H          5.24831       -1.17105       -2.02560
H          6.05863        0.35455       -1.55527
H          6.72591       -0.87451        1.22467
H          6.04751        0.77924        1.25032
H          5.24499       -0.55352        2.13913
H          3.44042       -0.53209       -2.18255
H          1.13469        0.28051       -2.31988
H          1.23477        1.31412        1.89435
H          3.54475        0.50252        2.02869
H         -0.75145        1.16952       -1.29563
H         -2.89249        2.83230        1.00792
H         -3.87317        0.23993       -2.16098
H         -2.15283        0.57471       -2.00238
H         -0.92512       -1.35126       -1.23421
H         -0.77850       -3.42889        0.09401
H         -2.70090       -4.16287        1.49435
H         -4.78221       -2.79899        1.55861
H         -4.94466       -0.70812        0.22863
