34
omegapdb_2f7p_11.log	Energy:    -117.5135498
C          0.51232       -0.08708       -0.07881
N         -0.19059       -0.43329       -1.34705
C         -1.39881        0.40083       -1.59960
C         -2.54647        0.12688       -0.65542
C         -3.29515       -1.05253       -0.78421
C         -4.34691       -1.31408        0.09747
C         -4.65815       -0.40101        1.11076
C         -3.91535        0.77655        1.23841
C         -2.86131        1.04159        0.35881
C          1.24244       -1.32818        0.51274
O          1.62611       -2.27826       -0.48480
C          2.54054       -0.78194        1.16556
O          3.63224       -1.67951        0.99468
C          2.88217        0.53948        0.41188
O          3.89978        0.30353       -0.56608
C          1.62939        0.94044       -0.38338
S          1.04120        2.57824        0.13709
H         -0.18952        0.30585        0.70585
H         -0.44768       -1.43149       -1.34528
H         -1.70846        0.20429       -2.65393
H         -1.10583        1.47696       -1.57574
H         -3.06241       -1.76368       -1.57476
H         -4.92710       -2.22978       -0.00617
H         -5.47852       -0.60584        1.79588
H         -4.15826        1.49104        2.02363
H         -2.29030        1.96435        0.46067
H          0.61445       -1.92707        1.20277
H          1.96961       -1.80759       -1.29277
H          2.45031       -0.63204        2.26016
H          3.37445       -2.41451        0.35851
H          3.26373        1.32177        1.10086
H          4.52966       -0.39461       -0.22892
H          1.87109        0.94367       -1.47913
H          1.99628        3.34792       -0.43134
