25
omegapdb_1m5f_21.log	Energy:    -161.7319995
O         -2.20426        2.74427        0.54975
C         -1.28627        1.97403       -0.10070
O         -0.29761        2.46235       -0.59957
C         -1.66881        0.54583       -0.06758
N         -2.86923        0.07386       -0.43283
O         -2.85417       -1.28933       -0.29511
C         -1.58076       -1.67645        0.18392
C         -0.79839       -0.55131        0.33366
C          0.59656       -0.45675        0.81509
C          1.57051        0.03224       -0.27725
N          1.62578       -0.80770       -1.49757
C          2.98930        0.10218        0.31306
O          3.24903        0.28060        1.47745
O          4.02866       -0.01154       -0.56374
C         -1.42051       -3.11429        0.40271
H         -1.96503        3.71796        0.53279
H          0.65990        0.23818        1.68880
H          0.93717       -1.43379        1.22324
H          1.29135        1.09119       -0.57742
H          0.88146       -0.55036       -2.14280
H          1.50513       -1.79232       -1.27444
H          3.74532       -0.20400       -1.50861
H         -2.33227       -3.67821        0.13372
H         -0.59380       -3.53448       -0.19352
H         -1.20808       -3.34091        1.46332
