35
omegacsd_DIAVER_07.log	Energy:     -19.6978283
N         -3.49763       -0.77540       -1.55522
C         -4.31544        0.15673       -0.92783
N         -4.07822        0.71243        0.31471
C         -2.95245        0.27677        0.97701
C         -2.09488       -0.72335        0.43062
C         -2.41571       -1.19130       -0.85353
C         -0.89119       -1.25182        1.14595
C          0.39487       -0.59569        0.70479
C          1.52132       -1.39703        0.46000
C          2.73191       -0.80963        0.07402
C          2.81749        0.60267       -0.07058
C          1.69340        1.39043        0.17504
C          0.48794        0.79181        0.56252
O          4.06206        1.08692       -0.44910
C          4.16640        2.50646       -0.71143
O          3.73187       -1.73559       -0.11444
C          5.02639       -1.26181       -0.56287
N         -2.67810        0.93322        2.17569
N         -5.48993        0.51590       -1.57323
H         -1.77965       -1.93310       -1.35750
H         -0.99211       -1.13245        2.24677
H         -0.83281       -2.35392        0.99531
H          1.47947       -2.48055        0.56022
H          1.73631        2.47145        0.06996
H         -0.38381        1.42018        0.74325
H          5.21595        2.59921       -1.01748
H          3.97298        3.07697        0.20146
H          3.49381        2.79636       -1.52387
H          5.45404       -0.58053        0.18085
H          4.92989       -0.76899       -1.53575
H          5.59557       -2.19505       -0.63412
H         -2.05865        0.49081        2.83654
H         -3.40582        1.51052        2.57719
H         -5.59331        0.27726       -2.54878
H         -5.99656        1.32269       -1.24168
