39
omegacsd_FIBREN_19.log	Energy:     -46.0320608
N         -2.57516        1.48804        1.14819
C         -1.24255        1.77367        0.92603
N         -0.37734        1.00124        0.18419
C         -0.82727       -0.13085       -0.46073
C         -2.18423       -0.50855       -0.27751
C         -2.98985        0.35601        0.53773
O         -4.26319       -0.16583        0.59167
C         -4.17994       -1.37105       -0.22587
N         -2.98385       -1.57934       -0.73311
C         -5.44956       -2.09598       -0.31058
N          0.01983       -0.84937       -1.27367
C          1.45808       -0.55731       -1.50056
C          1.71278        0.91029       -1.88972
C          1.62872        2.02498       -0.86396
O          1.14671        3.11030       -1.09349
O          2.33197        1.91016        0.30893
C          2.36867       -1.05109       -0.38528
C          3.74232       -1.15943       -0.67099
C          4.63044       -1.62049        0.30100
C          4.15870       -1.98416        1.56825
C          2.79616       -1.88308        1.85416
C          1.90198       -1.41836        0.88175
C         -0.68126        3.00968        1.52585
H         -5.81449       -2.39255        0.68871
H         -5.35018       -3.01278       -0.91819
H         -6.23961       -1.47447       -0.76891
H         -0.33632       -1.72828       -1.65924
H          1.71808       -1.17051       -2.42198
H          0.99416        1.18332       -2.70295
H          2.72093        0.98517       -2.35684
H          2.53222        0.98820        0.59677
H          4.12230       -0.88423       -1.65405
H          5.69335       -1.69849        0.07344
H          4.85308       -2.34458        2.32630
H          2.42173       -2.16577        2.83830
H          0.84313       -1.34403        1.13234
H         -0.13035        3.60027        0.75878
H          0.06187        2.77863        2.30662
H         -1.45735        3.65343        1.96728
