50
omegapdb_1xom_15.log	Energy:    -140.2329536
O         -5.84173       -2.62678        0.51563
C         -5.55713       -1.45099       -0.16131
O         -6.49704       -0.88559       -0.65090
C         -4.08801       -1.05964       -0.19495
C         -3.86459        0.04842       -1.23934
C         -2.39656        0.47684       -1.27924
C         -1.86926        0.91397        0.11478
C         -2.16657       -0.17380        1.18381
C         -3.64272       -0.58137        1.19905
C         -2.58535        2.14165        0.51604
N         -3.16726        3.08726        0.83296
C         -0.36399        1.16184        0.02371
C          0.19039        2.43484        0.15687
C          1.57662        2.62750        0.05366
C          2.41951        1.54674       -0.19092
O          3.79424        1.62610       -0.32054
C          4.40990        2.92408       -0.13257
C          1.86590        0.23926       -0.33019
C          0.48287        0.06531       -0.21924
O          2.52588       -0.92546       -0.61505
C          3.98861       -1.00117       -0.49359
C          4.29544       -2.39597       -1.06261
C          5.00387       -3.18713        0.05036
C          5.34985       -2.18300        1.16762
C          4.40658       -0.98474        0.98381
H         -5.07414       -3.08029        0.92160
H         -3.48417       -1.95464       -0.49048
H         -4.18539       -0.30143       -2.24093
H         -4.51996        0.91681       -1.01203
H         -1.76886       -0.35173       -1.66336
H         -2.26472        1.30666       -2.00265
H         -1.86396        0.19679        2.18369
H         -1.53175       -1.06151        0.99056
H         -4.27144        0.27660        1.52136
H         -3.80465       -1.37135        1.95661
H         -0.43433        3.30923        0.34173
H          1.97506        3.63390        0.16189
H          5.47233        2.68627       -0.27280
H          4.21967        3.29515        0.87840
H          4.06172        3.62388       -0.89798
H          0.08353       -0.94337       -0.32971
H          4.42338       -0.17542       -1.09129
H          3.35430       -2.89198       -1.37367
H          4.91782       -2.32165       -1.96903
H          5.90747       -3.69184       -0.32803
H          4.34178       -3.98144        0.43815
H          6.40365       -1.86295        1.08829
H          5.23672       -2.63633        2.16572
H          4.88181       -0.02871        1.25810
H          3.51218       -1.08333        1.62759
