61
omegapdb_1v2k_18.log	Energy:     -53.7051721
N          9.51113       -2.06377       -0.61239
C          8.47059       -2.80595       -0.14450
C          7.16503       -2.32033       -0.04321
C          6.88691       -0.99246       -0.45194
C          7.96668       -0.21518       -0.93922
C          9.24049       -0.78883       -1.00187
N          5.56448       -0.49551       -0.49103
C          5.39343        0.99403       -0.50540
C          4.03137        1.43961        0.04326
C          3.80647        0.90109        1.46469
C          4.15914       -0.59088        1.59931
C          4.49419       -1.22462        0.24144
C          2.40092        1.23920        1.97092
O          2.26811        2.07202        2.85874
N          1.26482        0.53370        1.53801
C         -0.06269        0.97701        2.05461
C         -0.83246        1.80377        1.00307
N         -0.94443        1.02305       -0.26293
C          0.38873        0.63066       -0.80135
C          1.14683       -0.20220        0.25702
S         -2.05851        1.64531       -1.43720
O         -2.07569        3.08943       -1.32950
O         -1.68980        1.01165       -2.68883
C         -3.57420        1.02120       -0.88140
C         -3.90640       -0.29622       -1.08315
C         -5.16047       -0.80297       -0.62175
C         -6.05802        0.07582        0.04455
C         -5.68761        1.44542        0.23001
C         -4.47713        1.90468       -0.22453
C         -7.31313       -0.42929        0.51140
C         -7.61882       -1.74924        0.30106
C         -6.73539       -2.64498       -0.36757
C         -5.52943       -2.17360       -0.81895
Cl        -9.12508       -2.37690        0.85675
H          8.71524       -3.83059        0.16063
H          6.37562       -2.96300        0.33802
H          7.82684        0.80311       -1.28296
H         10.09600       -0.21423       -1.37800
H          5.49567        1.32021       -1.56715
H          6.20431        1.49205        0.07563
H          3.22410        1.11543       -0.64214
H          3.98610        2.54844        0.05160
H          4.49766        1.47005        2.15179
H          3.33959       -1.15573        2.08526
H          5.02630       -0.69722        2.28315
H          3.58616       -1.21610       -0.41615
H          4.77211       -2.29585        0.37269
H          0.08052        1.58279        2.98258
H         -0.63991        0.06707        2.33181
H         -1.85368        2.02154        1.38720
H         -0.32920        2.78695        0.84673
H          0.99676        1.51526       -1.09770
H          0.23584        0.01743       -1.72314
H          0.58929       -1.14746        0.45980
H          2.14874       -0.49502       -0.13873
H         -3.22477       -0.97882       -1.60367
H         -6.38628        2.11472        0.73236
H         -4.19428        2.95761       -0.10028
H         -8.00365        0.24166        1.02331
H         -7.03336       -3.68458       -0.50924
H         -4.83253       -2.83484       -1.33699
