34
omegapdb_2f7p_21.log	Energy:    -115.8800056
C         -1.38464        1.02397       -0.62247
N         -0.25089        1.85318       -0.14808
C          0.57295        1.36761        0.99339
C          1.88838        0.73308        0.60979
C          2.90731        1.51559        0.04417
C          4.12843        0.93324       -0.30398
C          4.34436       -0.43208       -0.08674
C          3.33379       -1.21468        0.47955
C          2.10970       -0.63504        0.82439
C         -1.05339       -0.20700       -1.53340
O          0.28456       -0.26219       -2.00320
C         -1.37707       -1.49702       -0.72745
O         -0.18575       -2.24042       -0.45224
C         -1.94839       -1.05790        0.64704
O         -1.01332       -1.23255        1.71204
C         -2.23276        0.45326        0.53167
S         -3.98011        0.68618        0.07334
H         -1.99027        1.75164       -1.24062
H          0.34887        2.10094       -0.94615
H          0.77269        2.27449        1.61976
H         -0.01685        0.68568        1.65649
H          2.74945        2.58194       -0.11552
H          4.91616        1.54515       -0.74234
H          5.29845       -0.88274       -0.35518
H          3.50034       -2.27684        0.65644
H          1.31880       -1.25595        1.26342
H         -1.63451       -0.16450       -2.48258
H          0.93800       -0.15900       -1.26520
H         -2.06922       -2.17222       -1.27139
H          0.45613       -2.13555       -1.20924
H         -2.83374       -1.65883        0.94908
H         -0.16800       -1.66619        1.37788
H         -2.00973        0.96657        1.49805
H         -4.55457        0.49733        1.28160
