25
omegapdb_1m5f_01.log	Energy:    -162.2046465
O          0.81057       -2.36592        0.16968
C          1.97172       -1.73999       -0.25367
O          2.86084       -2.39377       -0.72960
C          1.86796       -0.28347       -0.03647
N          2.90096        0.45179        0.40731
O          2.50854        1.76154        0.45262
C          1.16749        1.84357        0.00947
C          0.72245        0.57500       -0.29811
C         -0.60974        0.15446       -0.78177
C         -1.65539        0.18023        0.35362
N         -1.46407       -0.85918        1.39548
C         -3.06087       -0.00487       -0.25096
O         -3.41219        0.44381       -1.31452
O         -3.97810       -0.67985        0.49638
C          0.60661        3.19395       -0.01479
H          0.85500       -3.35578        0.03855
H         -0.95276        0.81372       -1.61572
H         -0.56034       -0.86441       -1.22963
H         -1.65318        1.19497        0.83965
H         -0.80401       -0.54022        2.10221
H         -1.05923       -1.70881        0.99101
H         -3.60963       -1.04915        1.35898
H         -0.02891        3.39155        0.86589
H         -0.01702        3.35981       -0.91163
H          1.39308        3.97020       -0.01929
