25
omegapdb_1m5f_12.log	Energy:    -163.4089843
O          0.64335       -2.34604        0.06606
C          1.87973       -1.80120       -0.24147
O          2.77537       -2.52612       -0.58801
C          1.83987       -0.33444       -0.08976
N          2.91734        0.37563        0.28651
O          2.56948        1.69717        0.32553
C          1.20917        1.81508       -0.04830
C          0.71297        0.55843       -0.31999
C         -0.65437        0.16528       -0.72573
C         -1.66079        0.31623        0.43780
N         -1.21423       -0.38630        1.65775
C         -3.03543       -0.17542       -0.04174
O         -3.73435       -1.04743        0.41228
O         -3.45384        0.55819       -1.12509
C          0.68708        3.18173       -0.04561
H          0.64770       -3.34125       -0.01179
H         -0.65323       -0.88901       -1.09133
H         -1.00045        0.78179       -1.58735
H         -1.77194        1.40655        0.70421
H         -2.00222       -0.66495        2.24123
H         -0.68138       -1.22871        1.43217
H         -4.35131        0.28278       -1.45700
H          0.06165        3.36813        0.84662
H          1.49483        3.93456       -0.03051
H          0.06517        3.38455       -0.93342
