50
omegapdb_1xom_14.log	Energy:    -140.2329644
O         -5.84180       -2.62661        0.51639
C         -5.55710       -1.45120       -0.16114
O         -6.49691       -0.88612       -0.65130
C         -4.08799       -1.05978       -0.19474
C         -3.86451        0.04793       -1.23948
C         -2.39650        0.47640       -1.27937
C         -1.86937        0.91402        0.11455
C         -2.16674       -0.17339        1.18393
C         -3.64286       -0.58103        1.19914
C         -2.58555        2.14183        0.51528
N         -3.16754        3.08755        0.83173
C         -0.36408        1.16189        0.02368
C          0.19029        2.43487        0.15698
C          1.57654        2.62754        0.05402
C          2.41948        1.54677       -0.19041
O          3.79424        1.62611       -0.31966
C          4.40976        2.92434       -0.13284
C          1.86586        0.23931       -0.32977
C          0.48281        0.06535       -0.21913
O          2.52589       -0.92550       -0.61421
C          3.98866       -1.00101       -0.49346
C          4.29546       -2.39562       -1.06299
C          5.00383       -3.18722        0.04970
C          5.35019       -2.18344        1.16715
C          4.40724       -0.98489        0.98376
H         -5.07426       -3.07988        0.92275
H         -3.48408       -1.95486       -0.48991
H         -4.51996        0.91639       -1.01253
H         -4.18523       -0.30224       -2.24098
H         -1.76874       -0.35226       -1.66318
H         -2.26462        1.30598       -2.00306
H         -1.53184       -1.06112        0.99107
H         -1.86427        0.19756        2.18372
H         -3.80483       -1.37074        1.95696
H         -4.27165        0.27703        1.52113
H         -0.43445        3.30926        0.34180
H          1.97494        3.63393        0.16235
H          4.21949        3.29626        0.87780
H          4.06149        3.62343       -0.89886
H          5.47220        2.68652       -0.27286
H          0.08348       -0.94331       -0.32974
H          4.42310       -0.17507       -1.09116
H          4.91792       -2.32095       -1.96934
H          3.35435       -2.89148       -1.37431
H          5.90723       -3.69210       -0.32891
H          4.34156       -3.98143        0.43740
H          5.23708       -2.63700        2.16514
H          6.40409       -1.86368        1.08780
H          4.88286       -0.02901        1.25801
H          3.51308       -1.08313        1.62794
