34
omegapdb_2f7p_02.log	Energy:    -114.7795327
C         -0.61199       -0.53412       -0.12611
N          0.05380       -1.44636        0.82754
C          1.20946       -0.86677        1.57139
C          2.36562       -0.53204        0.65824
C          2.68502       -1.35459       -0.43178
C          3.77243       -1.04031       -1.25059
C          4.55183        0.09002       -0.98315
C          4.24259        0.90449        0.11054
C          3.15346        0.59732        0.93101
C         -1.92514       -1.20278       -0.63961
O         -2.65762       -1.85069        0.40579
C         -2.79896       -0.01721       -1.12939
O         -4.18811       -0.31394       -1.04237
C         -2.48577        1.11317       -0.10216
O         -3.32034        0.89496        1.05415
C         -1.05449        0.85996        0.39853
S         -0.03214        2.19876       -0.28364
H          0.08553       -0.41536       -1.00046
H         -0.62757       -1.84097        1.49076
H          0.93151        0.01555        2.19176
H          1.55434       -1.65375        2.28951
H          2.07900       -2.24044       -0.63321
H          4.01557       -1.68059       -2.09756
H          5.39891        0.33241       -1.62185
H          4.85283        1.78045        0.32643
H          2.93069        1.23149        1.78747
H         -1.75370       -2.01004       -1.37634
H         -2.87443       -1.18893        1.12782
H         -2.61842        0.28394       -2.17898
H         -4.32489       -1.16797       -0.53836
H         -2.68816        2.13051       -0.49056
H         -4.27119        0.89146        0.76429
H         -1.03999        0.90753        1.51355
H          1.19187        1.62370       -0.19077
