39
omegacsd_FIBREN_05.log	Energy:     -52.5692545
N          3.55169        1.32684        0.45048
C          2.34660        1.98624        0.51274
N          1.10415        1.42125        0.32474
C          0.99235        0.06577        0.05182
C          2.19291       -0.69153       -0.04133
C          3.42572        0.00638        0.17277
O          4.46027       -0.89000        0.04701
C          3.79020       -2.15316       -0.25260
N          2.47970       -2.04832       -0.30590
C          4.72106       -3.26876       -0.42992
N         -0.23828       -0.50896       -0.12171
C         -1.51911        0.24441        0.01482
C         -1.75287        1.16380       -1.20292
C         -2.09989        2.58042       -0.79889
O         -3.08467        3.18581       -1.13998
O         -1.20912        3.22186        0.01321
C         -2.64211       -0.76289        0.18129
C         -3.40376       -0.74651        1.35768
C         -4.44614       -1.66291        1.52771
C         -4.72791       -2.59981        0.52910
C         -3.96760       -2.61760       -0.64524
C         -2.92835       -1.70095       -0.82210
C          2.37585        3.44508        0.80687
H          5.41760       -3.08718       -1.26800
H          4.18456       -4.21173       -0.63903
H          5.33930       -3.42869        0.47168
H         -0.28254       -1.51005       -0.33549
H         -1.43967        0.88381        0.94453
H         -0.86321        1.18674       -1.86916
H         -2.57307        0.77285       -1.84645
H         -0.36790        2.69319        0.23443
H         -3.19326       -0.01877        2.14171
H         -5.04008       -1.64392        2.44130
H         -5.54014       -3.31327        0.66360
H         -4.18843       -3.34516       -1.42568
H         -2.34926       -1.71412       -1.74478
H          1.88801        4.03151        0.00982
H          1.84462        3.67756        1.74522
H          3.40906        3.82223        0.91024
