24
omegapdb_1gs5_03.log	Energy:    -242.5991673
C          0.67385        0.49286       -0.46202
C          0.48742        1.74713        0.40047
O          0.12211        1.83825        1.54891
O          0.78860        2.85813       -0.33474
C         -0.70269       -0.05453       -0.87725
C         -1.58075       -0.48721        0.29792
C         -3.01518       -0.60467       -0.12047
O         -3.61705       -0.07910       -1.02523
O         -3.67231       -1.46460        0.73260
N          1.46795       -0.47102        0.31622
C          2.67836       -0.98201       -0.19389
O          3.07134       -0.63997       -1.29243
C          3.38369       -1.94096        0.71665
H          1.25436        0.77145       -1.40044
H          0.67615        3.70922        0.17369
H         -1.23281        0.71621       -1.48492
H         -0.54972       -0.91139       -1.56934
H         -1.51770        0.24380        1.14434
H         -1.23016       -1.44998        0.73068
H         -4.63821       -1.56087        0.51445
H          1.10381       -0.73979        1.22558
H          4.32598       -2.27670        0.24890
H          3.65182       -1.48738        1.68114
H          2.79105       -2.84288        0.92110
