40
omegapdb_2byh_02.log	Energy:     -92.8287590
O         -6.56755       -0.02145        0.66659
C         -5.85464        0.29459       -0.26513
C         -6.40108        1.10775       -1.40705
C         -4.42315       -0.11204       -0.31608
C         -3.53958        0.32144       -1.31566
C         -2.20862       -0.08540       -1.31490
C         -1.74225       -0.94837       -0.29514
C         -2.62059       -1.39120        0.71100
C         -3.94601       -0.96974        0.69344
N         -0.36913       -1.32280       -0.33592
C          0.29110       -2.21024        0.56024
O         -0.29348       -2.76475        1.46703
C          1.71707       -2.37866        0.25480
C          2.37268       -3.65606        0.20247
N          3.68290       -3.49095       -0.10840
N          3.88587       -2.14717       -0.22934
C          2.71257       -1.41903       -0.01823
C          2.66154        0.03287       -0.05032
C          1.79868        0.72977        0.81627
C          1.72301        2.11824        0.77502
Cl         0.66606        2.95693        1.82356
C          2.52141        2.85269       -0.13299
O          2.49503        4.20280       -0.23585
C          3.40892        2.19249       -0.99387
C          3.47231        0.79767       -0.92703
O          4.34443        0.08788       -1.70732
H         -6.28817        0.59200       -2.36833
H         -7.47674        1.29733       -1.26462
H         -5.91026        2.08531       -1.48393
H         -3.88724        0.98676       -2.10732
H         -1.53952        0.26032       -2.09791
H         -2.26750       -2.06573        1.49985
H         -4.63944       -1.30478        1.47432
H          0.17729       -0.94323       -1.11604
H          1.92074       -4.62193        0.38082
H          4.79140       -1.78016       -0.50244
H          1.17991        0.17388        1.53276
H          1.85698        4.64138        0.39921
H          4.02303        2.77360       -1.67813
H          4.85147        0.66743       -2.33775
