50
omegapdb_1xom_01.log	Energy:    -146.9800280
O         -5.69490        2.77730       -0.26445
C         -5.54628        1.42611       -0.02846
O         -6.52175        0.74902        0.18326
C         -4.07639        1.06719       -0.09284
C         -3.63200        0.50700        1.27041
C         -2.15885        0.09305        1.22782
C         -1.86377       -0.92111        0.08862
C         -2.38589       -0.38859       -1.27417
C         -3.85627        0.03187       -1.21050
C         -2.58502       -2.17162        0.39978
N         -3.16990       -3.13676        0.64432
C         -0.35845       -1.16621       -0.01154
C          0.19837       -2.44086        0.09414
C          1.58495       -2.62885       -0.01201
C          2.42611       -1.54126       -0.23118
O          3.80132       -1.61539       -0.36192
C          4.41918       -2.91550       -0.19846
C          1.87042       -0.23206       -0.34035
C          0.48700       -0.06281       -0.22654
O          2.52933        0.93962       -0.59880
C          3.99014        1.01734       -0.46107
C          4.29731        2.42656       -0.99344
C          4.99370        3.19258        0.14443
C          5.33275        2.16285        1.24033
C          4.39461        0.96687        1.01937
H         -6.64224        3.07491       -0.23521
H         -3.48613        1.99323       -0.32356
H         -3.78518        1.26362        2.06468
H         -4.26953       -0.35952        1.54927
H         -1.52065        0.98986        1.09550
H         -1.85952       -0.34443        2.20110
H         -2.24723       -1.16427       -2.05367
H         -1.76123        0.46929       -1.59456
H         -4.50454       -0.85419       -1.03798
H         -4.16843        0.44977       -2.18763
H         -0.42464       -3.32022        0.25986
H          1.98502       -3.63663        0.07386
H          5.48127       -2.67321       -0.33282
H          4.07304       -3.60099       -0.97760
H          4.22840       -3.30647        0.80487
H          0.08630        0.94810       -0.31183
H          4.43377        0.20772       -1.07415
H          4.92712        2.37641       -1.89622
H          3.35678        2.92697       -1.29969
H          5.89894        3.70886       -0.21364
H          4.32557        3.97531        0.54538
H          6.38811        1.84771        1.16288
H          5.20913        2.59184        2.24791
H          4.86971        0.00584        1.27548
H          3.49386        1.04817        1.65685
