36
omegapdb_1qxw_30.log	Energy:    -105.3087572
C         -4.66488       -0.84606        0.09675
C         -4.82447        0.34759       -0.82436
C         -3.72081        0.35163        0.22202
N         -2.32740        0.30174       -0.22595
C         -1.44980       -0.36410        0.77994
C         -0.00402       -0.43524        0.23741
C          0.57348        0.86953       -0.40410
N          0.41504        2.05663        0.46307
C          2.03979        0.68824       -0.84562
C          3.08069        0.77136        0.27681
C          4.46297        0.28151       -0.17601
C          4.54340       -1.23915       -0.28935
O          0.72391       -0.93161        1.35372
O          0.10280       -1.42519       -0.78650
H         -4.30269       -1.78667       -0.30802
H         -5.40355       -1.03020        0.87192
H         -5.67387        1.01625       -0.70042
H         -4.57883        0.24866       -1.87978
H         -3.82851        1.00900        1.09861
H         -2.24329       -0.18768       -1.12864
H         -1.78467       -1.38641        1.06276
H         -1.45999        0.22577        1.72414
H         -0.03433        1.04800       -1.33918
H         -0.56939        2.30777        0.54672
H          0.77356        1.88631        1.39727
H          2.12312       -0.28268       -1.38040
H          2.26711        1.47046       -1.59981
H          3.15588        1.82081        0.62883
H          2.75032        0.18445        1.16370
H          4.72532        0.74455       -1.14816
H          5.22931        0.64018        0.53991
H          5.52193       -1.55612       -0.66814
H          4.39539       -1.72764        0.67965
H          3.78492       -1.63278       -0.97730
H          1.70944       -0.89136        1.19873
H         -0.00228       -2.32681       -0.42097
